data/nesta/nesta_case300_ieee.m
%%%%%%%%%%%%%%%%%%%%%%%%%%%%%%%%%%%%%%%%%%%%%%%%%%%%%%%%%%%%%%%%%%%%%%%%%%%
%%%%                                                                  %%%%%
%%%%      NICTA Energy System Test Case Archive (NESTA) - v0.1.5      %%%%%
%%%%              Optimal Power Flow - Typical Operation              %%%%%
%%%%                       30 - October - 2014                        %%%%%
%%%%                                                                  %%%%%
%%%%%%%%%%%%%%%%%%%%%%%%%%%%%%%%%%%%%%%%%%%%%%%%%%%%%%%%%%%%%%%%%%%%%%%%%%%
%   Power flow data for IEEE 300 bus test case.
%   This data was converted from IEEE Common Data Format
%   (ieee300cdf.txt) on 20-Sep-2004 by cdf2matp, rev. 1.11
%
%   Converted from IEEE CDF file from:
%       http://www.ee.washington.edu/research/pstca/
%
%   CDF Header:
%   13/05/91 CYME INTERNATIONAL    100.0 1991 S IEEE 300-BUS TEST SYSTEM
%
function mpc = nesta_case300_ieee
mpc.version = '2';
mpc.baseMVA = 100.0;

%% bus data
%	bus_i	type	Pd	Qd	Gs	Bs	area	Vm	Va	baseKV	zone	Vmax	Vmin
mpc.bus = [
	1	 1	 90.0	 49.0	 0.0	 0.0	 1	     1.0284	     5.9500	 115.0	 1	     1.0600	     0.9400;
	2	 1	 56.0	 15.0	 0.0	 0.0	 1	     1.0354	     7.7400	 115.0	 1	     1.0600	     0.9400;
	3	 1	 20.0	 0.0	 0.0	 0.0	 1	     0.9971	     6.6400	 230.0	 1	     1.0600	     0.9400;
	4	 1	 0.0	 0.0	 0.0	 0.0	 1	     1.0308	     4.7100	 345.0	 1	     1.0600	     0.9400;
	5	 1	 353.0	 130.0	 0.0	 0.0	 1	     1.0191	     4.6800	 115.0	 1	     1.0600	     0.9400;
	6	 1	 120.0	 41.0	 0.0	 0.0	 1	     1.0312	     6.9900	 115.0	 1	     1.0600	     0.9400;
	7	 1	 0.0	 0.0	 0.0	 0.0	 1	     0.9934	     6.1900	 230.0	 1	     1.0600	     0.9400;
	8	 2	 63.0	 14.0	 0.0	 0.0	 1	     1.0153	     2.4000	 115.0	 1	     1.0600	     0.9400;
	9	 1	 96.0	 43.0	 0.0	 0.0	 1	     1.0034	     2.8500	 115.0	 1	     1.0600	     0.9400;
	10	 2	 153.0	 33.0	 0.0	 0.0	 1	     1.0205	     1.3500	 230.0	 1	     1.0600	     0.9400;
	11	 1	 83.0	 21.0	 0.0	 0.0	 1	     1.0057	     2.4600	 115.0	 1	     1.0600	     0.9400;
	12	 1	 0.0	 0.0	 0.0	 0.0	 1	     0.9974	     5.2100	 230.0	 1	     1.0600	     0.9400;
	13	 1	 58.0	 10.0	 0.0	 0.0	 1	     0.9977	    -0.5500	 115.0	 1	     1.0600	     0.9400;
	14	 1	 160.0	 60.0	 0.0	 0.0	 1	     0.9991	    -4.8100	 115.0	 1	     1.0600	     0.9400;
	15	 1	 126.7	 23.0	 0.0	 0.0	 1	     1.0343	    -8.5900	 115.0	 1	     1.0600	     0.9400;
	16	 1	 0.0	 0.0	 0.0	 0.0	 1	     1.0315	    -2.6500	 345.0	 1	     1.0600	     0.9400;
	17	 1	 561.0	 220.0	 0.0	 0.0	 1	     1.0649	   -13.1000	 115.0	 1	     1.0600	     0.9400;
	19	 1	 0.0	 0.0	 0.0	 0.0	 1	     0.9820	     1.0800	 230.0	 1	     1.0600	     0.9400;
	20	 2	 605.0	 120.0	 0.0	 0.0	 1	     1.0010	    -2.4600	 115.0	 1	     1.0600	     0.9400;
	21	 1	 77.0	 1.0	 0.0	 0.0	 1	     0.9752	     1.6200	 230.0	 1	     1.0600	     0.9400;
	22	 1	 81.0	 23.0	 0.0	 0.0	 1	     0.9963	    -1.9700	 115.0	 1	     1.0600	     0.9400;
	23	 1	 21.0	 7.0	 0.0	 0.0	 1	     1.0501	     3.9400	 115.0	 1	     1.0600	     0.9400;
	24	 1	 0.0	 0.0	 0.0	 0.0	 1	     1.0057	     6.0200	 230.0	 1	     1.0600	     0.9400;
	25	 1	 45.0	 12.0	 0.0	 0.0	 1	     1.0234	     1.4400	 115.0	 1	     1.0600	     0.9400;
	26	 1	 28.0	 9.0	 0.0	 0.0	 1	     0.9986	    -1.7300	 115.0	 1	     1.0600	     0.9400;
	27	 1	 69.0	 13.0	 0.0	 0.0	 1	     0.9750	    -4.9000	 115.0	 1	     1.0600	     0.9400;
	33	 1	 55.0	 6.0	 0.0	 0.0	 1	     1.0244	   -12.0200	 115.0	 1	     1.0600	     0.9400;
	34	 1	 0.0	 0.0	 0.0	 0.0	 1	     1.0414	    -7.9400	 345.0	 1	     1.0600	     0.9400;
	35	 1	 0.0	 0.0	 0.0	 0.0	 1	     0.9757	   -25.7200	 115.0	 1	     1.0600	     0.9400;
	36	 1	 0.0	 0.0	 0.0	 0.0	 1	     1.0011	   -22.5900	 230.0	 1	     1.0600	     0.9400;
	37	 1	 85.0	 32.0	 0.0	 0.0	 1	     1.0201	   -11.2300	 115.0	 1	     1.0600	     0.9400;
	38	 1	 155.0	 18.0	 0.0	 0.0	 1	     1.0202	   -12.5600	 115.0	 1	     1.0600	     0.9400;
	39	 1	 0.0	 0.0	 0.0	 0.0	 1	     1.0535	    -5.8100	 345.0	 1	     1.0600	     0.9400;
	40	 1	 46.0	 -21.0	 0.0	 0.0	 1	     1.0216	   -12.7800	 115.0	 1	     1.0600	     0.9400;
	41	 1	 86.0	 0.0	 0.0	 0.0	 1	     1.0292	   -10.4500	 115.0	 1	     1.0600	     0.9400;
	42	 1	 0.0	 0.0	 0.0	 0.0	 1	     1.0448	    -7.4400	 345.0	 1	     1.0600	     0.9400;
	43	 1	 39.0	 9.0	 0.0	 0.0	 1	     1.0006	   -16.7900	 115.0	 1	     1.0600	     0.9400;
	44	 1	 195.0	 29.0	 0.0	 0.0	 1	     1.0086	   -17.4700	 115.0	 1	     1.0600	     0.9400;
	45	 1	 0.0	 0.0	 0.0	 0.0	 1	     1.0215	   -14.7400	 230.0	 1	     1.0600	     0.9400;
	46	 1	 0.0	 0.0	 0.0	 0.0	 1	     1.0344	   -11.7500	 345.0	 1	     1.0600	     0.9400;
	47	 1	 58.0	 11.8	 0.0	 0.0	 1	     0.9777	   -23.1700	 115.0	 1	     1.0600	     0.9400;
	48	 1	 41.0	 19.0	 0.0	 0.0	 1	     1.0019	   -16.0900	 115.0	 1	     1.0600	     0.9400;
	49	 1	 92.0	 26.0	 0.0	 0.0	 1	     1.0475	    -2.9500	 115.0	 1	     1.0600	     0.9400;
	51	 1	 -5.0	 5.0	 0.0	 0.0	 1	     1.0253	    -8.1500	 115.0	 1	     1.0600	     0.9400;
	52	 1	 61.0	 28.0	 0.0	 0.0	 1	     0.9979	   -11.8600	 115.0	 1	     1.0600	     0.9400;
	53	 1	 69.0	 3.0	 0.0	 0.0	 1	     0.9959	   -17.6000	 115.0	 1	     1.0600	     0.9400;
	54	 1	 10.0	 1.0	 0.0	 0.0	 1	     1.0050	   -16.2500	 115.0	 1	     1.0600	     0.9400;
	55	 1	 22.0	 10.0	 0.0	 0.0	 1	     1.0150	   -12.2100	 115.0	 1	     1.0600	     0.9400;
	57	 1	 98.0	 20.0	 0.0	 0.0	 1	     1.0335	    -8.0000	 115.0	 1	     1.0600	     0.9400;
	58	 1	 14.0	 1.0	 0.0	 0.0	 1	     0.9918	    -5.9900	 115.0	 1	     1.0600	     0.9400;
	59	 1	 218.0	 106.0	 0.0	 0.0	 1	     0.9789	    -5.2900	 115.0	 1	     1.0600	     0.9400;
	60	 1	 0.0	 0.0	 0.0	 0.0	 1	     1.0246	    -9.5600	 230.0	 1	     1.0600	     0.9400;
	61	 1	 227.0	 110.0	 0.0	 0.0	 1	     0.9906	    -3.4700	 115.0	 1	     1.0600	     0.9400;
	62	 1	 0.0	 0.0	 0.0	 0.0	 1	     1.0160	    -1.1000	 230.0	 1	     1.0600	     0.9400;
	63	 2	 70.0	 30.0	 0.0	 0.0	 1	     0.9583	   -17.6200	 115.0	 1	     1.0600	     0.9400;
	64	 1	 0.0	 0.0	 0.0	 0.0	 1	     0.9480	   -12.9700	 230.0	 1	     1.0600	     0.9400;
	69	 1	 0.0	 0.0	 0.0	 0.0	 1	     0.9630	   -25.6600	 115.0	 1	     1.0600	     0.9400;
	70	 1	 56.0	 20.0	 0.0	 0.0	 1	     0.9513	   -35.1600	 115.0	 1	     1.0600	     0.9400;
	71	 1	 116.0	 38.0	 0.0	 0.0	 1	     0.9793	   -29.8800	 115.0	 1	     1.0600	     0.9400;
	72	 1	 57.0	 19.0	 0.0	 0.0	 1	     0.9696	   -27.4800	 115.0	 1	     1.0600	     0.9400;
	73	 1	 224.0	 71.0	 0.0	 0.0	 1	     0.9775	   -25.7700	 115.0	 1	     1.0600	     0.9400;
	74	 1	 0.0	 0.0	 0.0	 0.0	 1	     0.9964	   -22.0000	 230.0	 1	     1.0600	     0.9400;
	76	 2	 208.0	 107.0	 0.0	 0.0	 1	     0.9632	   -26.5400	 115.0	 1	     1.0600	     0.9400;
	77	 1	 74.0	 28.0	 0.0	 0.0	 1	     0.9837	   -24.9400	 115.0	 1	     1.0600	     0.9400;
	78	 1	 0.0	 0.0	 0.0	 0.0	 1	     0.9900	   -24.0500	 115.0	 1	     1.0600	     0.9400;
	79	 1	 48.0	 14.0	 0.0	 0.0	 1	     0.9820	   -24.9700	 115.0	 1	     1.0600	     0.9400;
	80	 1	 28.0	 7.0	 0.0	 0.0	 1	     0.9872	   -24.9700	 115.0	 1	     1.0600	     0.9400;
	81	 1	 0.0	 0.0	 0.0	 0.0	 1	     1.0340	   -18.8900	 345.0	 1	     1.0600	     0.9400;
	84	 2	 37.0	 13.0	 0.0	 0.0	 1	     1.0250	   -17.1600	 115.0	 1	     1.0600	     0.9400;
	85	 1	 0.0	 0.0	 0.0	 0.0	 1	     0.9872	   -17.6800	 230.0	 1	     1.0600	     0.9400;
	86	 1	 0.0	 0.0	 0.0	 0.0	 1	     0.9909	   -14.1900	 230.0	 1	     1.0600	     0.9400;
	87	 1	 0.0	 0.0	 0.0	 0.0	 1	     0.9921	    -7.7700	 230.0	 1	     1.0600	     0.9400;
	88	 1	 0.0	 0.0	 0.0	 0.0	 1	     1.0151	   -20.9600	 230.0	 1	     1.0600	     0.9400;
	89	 1	 44.2	 0.0	 0.0	 0.0	 1	     1.0317	   -11.1300	 115.0	 1	     1.0600	     0.9400;
	90	 1	 66.0	 0.0	 0.0	 0.0	 1	     1.0272	   -11.2300	 115.0	 1	     1.0600	     0.9400;
	91	 2	 17.4	 0.0	 0.0	 0.0	 1	     1.0520	    -9.4000	 115.0	 1	     1.0600	     0.9400;
	92	 2	 15.8	 0.0	 0.0	 0.0	 1	     1.0520	    -6.2000	 115.0	 1	     1.0600	     0.9400;
	94	 1	 60.3	 0.0	 0.0	 0.0	 1	     0.9930	    -9.4200	 115.0	 1	     1.0600	     0.9400;
	97	 1	 39.9	 0.0	 0.0	 0.0	 1	     1.0183	   -13.2400	 115.0	 1	     1.0600	     0.9400;
	98	 2	 66.7	 0.0	 0.0	 0.0	 1	     1.0000	   -14.6000	 115.0	 1	     1.0600	     0.9400;
	99	 1	 83.5	 0.0	 0.0	 0.0	 1	     0.9894	   -20.2700	 115.0	 1	     1.0600	     0.9400;
	100	 1	 0.0	 0.0	 0.0	 0.0	 1	     1.0060	   -14.4500	 115.0	 1	     1.0600	     0.9400;
	102	 1	 77.8	 0.0	 0.0	 0.0	 1	     1.0008	   -15.2300	 115.0	 1	     1.0600	     0.9400;
	103	 1	 32.0	 0.0	 0.0	 0.0	 1	     1.0288	   -12.0600	 115.0	 1	     1.0600	     0.9400;
	104	 1	 8.6	 0.0	 0.0	 0.0	 1	     0.9958	   -17.3300	 115.0	 1	     1.0600	     0.9400;
	105	 1	 49.6	 0.0	 0.0	 0.0	 1	     1.0223	   -12.9400	 115.0	 1	     1.0600	     0.9400;
	107	 1	 4.6	 0.0	 0.0	 0.0	 1	     1.0095	   -16.0300	 115.0	 1	     1.0600	     0.9400;
	108	 2	 112.1	 0.0	 0.0	 0.0	 1	     0.9900	   -20.2600	 115.0	 1	     1.0600	     0.9400;
	109	 1	 30.7	 0.0	 0.0	 0.0	 1	     0.9749	   -26.0600	 115.0	 1	     1.0600	     0.9400;
	110	 1	 63.0	 0.0	 0.0	 0.0	 1	     0.9730	   -24.7200	 115.0	 1	     1.0600	     0.9400;
	112	 1	 19.6	 0.0	 0.0	 0.0	 1	     0.9725	   -28.6900	 115.0	 1	     1.0600	     0.9400;
	113	 1	 26.2	 0.0	 0.0	 0.0	 1	     0.9700	   -25.3800	 115.0	 1	     1.0600	     0.9400;
	114	 1	 18.2	 0.0	 0.0	 0.0	 1	     0.9747	   -28.5900	 115.0	 1	     1.0600	     0.9400;
	115	 1	 0.0	 0.0	 0.0	 0.0	 1	     0.9603	   -13.5700	 115.0	 2	     1.0600	     0.9400;
	116	 1	 0.0	 0.0	 0.0	 0.0	 1	     1.0249	   -12.6900	 115.0	 2	     1.0600	     0.9400;
	117	 1	 0.0	 0.0	 0.0	 325.0	 1	     0.9348	    -4.7200	 115.0	 2	     1.0600	     0.9400;
	118	 1	 14.1	 650.0	 0.0	 0.0	 1	     0.9298	    -4.1200	 115.0	 2	     1.0600	     0.9400;
	119	 2	 0.0	 0.0	 0.0	 0.0	 1	     1.0435	     5.1700	 115.0	 2	     1.0600	     0.9400;
	120	 1	 777.0	 215.0	 0.0	 55.0	 1	     0.9584	    -8.7700	 115.0	 2	     1.0600	     0.9400;
	121	 1	 535.0	 55.0	 0.0	 0.0	 1	     0.9871	   -12.6400	 115.0	 2	     1.0600	     0.9400;
	122	 1	 229.1	 11.8	 0.0	 0.0	 1	     0.9728	   -14.3600	 115.0	 2	     1.0600	     0.9400;
	123	 1	 78.0	 1.4	 0.0	 0.0	 1	     1.0006	   -17.6400	 115.0	 2	     1.0600	     0.9400;
	124	 2	 276.4	 59.3	 0.0	 0.0	 1	     1.0233	   -13.4900	 115.0	 2	     1.0600	     0.9400;
	125	 2	 514.8	 82.7	 0.0	 0.0	 1	     1.0103	   -18.4300	 115.0	 2	     1.0600	     0.9400;
	126	 1	 57.9	 5.1	 0.0	 0.0	 1	     0.9978	   -12.8600	 115.0	 2	     1.0600	     0.9400;
	127	 1	 380.8	 37.0	 0.0	 0.0	 1	     1.0001	   -10.5200	 230.0	 2	     1.0600	     0.9400;
	128	 1	 0.0	 0.0	 0.0	 0.0	 1	     1.0024	    -4.7800	 230.0	 2	     1.0600	     0.9400;
	129	 1	 0.0	 0.0	 0.0	 0.0	 1	     1.0028	    -4.4000	 230.0	 2	     1.0600	     0.9400;
	130	 1	 0.0	 0.0	 0.0	 0.0	 1	     1.0191	     5.5600	 230.0	 2	     1.0600	     0.9400;
	131	 1	 0.0	 0.0	 0.0	 0.0	 1	     0.9861	     6.0600	 230.0	 2	     1.0600	     0.9400;
	132	 1	 0.0	 0.0	 0.0	 0.0	 1	     1.0045	     3.0400	 230.0	 2	     1.0600	     0.9400;
	133	 1	 0.0	 0.0	 0.0	 0.0	 1	     1.0020	    -5.4600	 230.0	 2	     1.0600	     0.9400;
	134	 1	 0.0	 0.0	 0.0	 0.0	 1	     1.0220	    -8.0400	 230.0	 2	     1.0600	     0.9400;
	135	 1	 169.2	 41.6	 0.0	 0.0	 1	     1.0193	    -6.7600	 230.0	 2	     1.0600	     0.9400;
	136	 1	 55.2	 18.2	 0.0	 0.0	 1	     1.0476	     1.5400	 230.0	 2	     1.0600	     0.9400;
	137	 1	 273.6	 99.8	 0.0	 0.0	 1	     1.0471	    -1.4500	 230.0	 2	     1.0600	     0.9400;
	138	 2	 1019.2	 135.2	 0.0	 0.0	 1	     1.0550	    -6.3500	 230.0	 2	     1.0600	     0.9400;
	139	 1	 595.0	 83.3	 0.0	 0.0	 1	     1.0117	    -3.5700	 115.0	 2	     1.0600	     0.9400;
	140	 1	 387.7	 114.7	 0.0	 0.0	 1	     1.0430	    -3.4400	 230.0	 2	     1.0600	     0.9400;
	141	 2	 145.0	 58.0	 0.0	 0.0	 1	     1.0510	     0.0500	 230.0	 2	     1.0600	     0.9400;
	142	 1	 56.5	 24.5	 0.0	 0.0	 1	     1.0155	    -2.7700	 230.0	 2	     1.0600	     0.9400;
	143	 2	 89.5	 35.5	 0.0	 0.0	 1	     1.0435	     4.0300	 230.0	 2	     1.0600	     0.9400;
	144	 1	 0.0	 0.0	 0.0	 0.0	 1	     1.0160	    -0.7000	 230.0	 2	     1.0600	     0.9400;
	145	 1	 24.0	 14.0	 0.0	 0.0	 1	     1.0081	    -0.1600	 230.0	 2	     1.0600	     0.9400;
	146	 2	 0.0	 0.0	 0.0	 0.0	 1	     1.0528	     4.3200	 230.0	 2	     1.0600	     0.9400;
	147	 2	 0.0	 0.0	 0.0	 0.0	 1	     1.0528	     8.3600	 230.0	 2	     1.0600	     0.9400;
	148	 1	 63.0	 25.0	 0.0	 0.0	 1	     1.0577	     0.2800	 230.0	 2	     1.0600	     0.9400;
	149	 2	 0.0	 0.0	 0.0	 0.0	 1	     1.0735	     5.2300	 230.0	 2	     1.0600	     0.9400;
	150	 1	 0.0	 0.0	 0.0	 0.0	 1	     0.9869	     6.3400	 230.0	 2	     1.0600	     0.9400;
	151	 1	 0.0	 0.0	 0.0	 0.0	 1	     1.0048	     4.1300	 230.0	 2	     1.0600	     0.9400;
	152	 2	 17.0	 9.0	 0.0	 0.0	 1	     1.0535	     9.2400	 230.0	 2	     1.0600	     0.9400;
	153	 2	 0.0	 0.0	 0.0	 0.0	 1	     1.0435	    10.4600	 230.0	 2	     1.0600	     0.9400;
	154	 1	 70.0	 5.0	 0.0	 34.5	 1	     0.9663	    -1.8000	 115.0	 2	     1.0600	     0.9400;
	155	 1	 200.0	 50.0	 0.0	 0.0	 1	     1.0177	     6.7500	 230.0	 2	     1.0600	     0.9400;
	156	 2	 75.0	 50.0	 0.0	 0.0	 1	     0.9630	     5.1500	 115.0	 2	     1.0600	     0.9400;
	157	 1	 123.5	 -24.3	 0.0	 0.0	 1	     0.9845	   -11.9300	 230.0	 2	     1.0600	     0.9400;
	158	 1	 0.0	 0.0	 0.0	 0.0	 1	     0.9987	   -11.4000	 230.0	 2	     1.0600	     0.9400;
	159	 1	 33.0	 16.5	 0.0	 0.0	 1	     0.9867	    -9.8200	 230.0	 2	     1.0600	     0.9400;
	160	 1	 0.0	 0.0	 0.0	 0.0	 1	     0.9998	   -12.5500	 230.0	 2	     1.0600	     0.9400;
	161	 1	 35.0	 15.0	 0.0	 0.0	 1	     1.0360	     8.8500	 230.0	 2	     1.0600	     0.9400;
	162	 1	 85.0	 24.0	 0.0	 0.0	 1	     0.9918	    18.5000	 230.0	 2	     1.0600	     0.9400;
	163	 1	 0.0	 0.4	 0.0	 0.0	 1	     1.0410	     2.9100	 230.0	 2	     1.0600	     0.9400;
	164	 1	 0.0	 0.0	 0.0	 -212.0	 1	     0.9839	     9.6600	 230.0	 2	     1.0600	     0.9400;
	165	 1	 0.0	 0.0	 0.0	 0.0	 1	     1.0002	    26.3100	 230.0	 2	     1.0600	     0.9400;
	166	 1	 0.0	 0.0	 0.0	 -103.0	 1	     0.9973	    30.2200	 230.0	 2	     1.0600	     0.9400;
	167	 1	 299.9	 95.7	 0.0	 0.0	 1	     0.9715	    -6.9100	 230.0	 2	     1.0600	     0.9400;
	168	 1	 0.0	 0.0	 0.0	 0.0	 1	     1.0024	    -4.8000	 230.0	 2	     1.0600	     0.9400;
	169	 1	 0.0	 0.0	 0.0	 0.0	 1	     0.9879	    -6.6800	 230.0	 2	     1.0600	     0.9400;
	170	 2	 481.8	 205.0	 0.0	 0.0	 1	     0.9290	     0.0900	 115.0	 2	     1.0600	     0.9400;
	171	 2	 763.6	 291.1	 0.0	 0.0	 1	     0.9829	    -9.9400	 115.0	 2	     1.0600	     0.9400;
	172	 1	 26.5	 0.0	 0.0	 0.0	 1	     1.0244	    -6.2200	 115.0	 2	     1.0600	     0.9400;
	173	 1	 163.5	 43.0	 0.0	 53.0	 1	     0.9837	   -12.7500	 115.0	 2	     1.0600	     0.9400;
	174	 1	 0.0	 0.0	 0.0	 0.0	 1	     1.0622	    -2.6900	 115.0	 2	     1.0600	     0.9400;
	175	 1	 176.0	 83.0	 0.0	 0.0	 1	     0.9730	    -7.2100	 115.0	 2	     1.0600	     0.9400;
	176	 2	 5.0	 4.0	 0.0	 0.0	 1	     1.0522	     4.6700	 115.0	 2	     1.0600	     0.9400;
	177	 2	 28.0	 12.0	 0.0	 0.0	 1	     1.0077	     0.6200	 115.0	 2	     1.0600	     0.9400;
	178	 1	 427.4	 173.6	 0.0	 0.0	 1	     0.9397	    -6.5600	 115.0	 2	     1.0600	     0.9400;
	179	 1	 74.0	 29.0	 0.0	 45.0	 1	     0.9699	    -9.3700	 115.0	 2	     1.0600	     0.9400;
	180	 1	 69.5	 49.3	 0.0	 0.0	 1	     0.9793	    -3.0900	 115.0	 2	     1.0600	     0.9400;
	181	 1	 73.4	 0.0	 0.0	 0.0	 1	     1.0518	    -1.3300	 230.0	 2	     1.0600	     0.9400;
	182	 1	 240.7	 89.0	 0.0	 0.0	 1	     1.0447	    -4.1900	 230.0	 2	     1.0600	     0.9400;
	183	 1	 40.0	 4.0	 0.0	 0.0	 1	     0.9717	     7.1200	 115.0	 2	     1.0600	     0.9400;
	184	 1	 136.8	 16.6	 0.0	 0.0	 1	     1.0386	    -6.8500	 230.0	 2	     1.0600	     0.9400;
	185	 2	 0.0	 0.0	 0.0	 0.0	 1	     1.0522	    -4.3300	 230.0	 2	     1.0600	     0.9400;
	186	 2	 59.8	 24.3	 0.0	 0.0	 1	     1.0650	     2.1700	 230.0	 2	     1.0600	     0.9400;
	187	 2	 59.8	 24.3	 0.0	 0.0	 1	     1.0650	     1.4000	 230.0	 2	     1.0600	     0.9400;
	188	 1	 182.6	 43.6	 0.0	 0.0	 1	     1.0533	    -0.7200	 230.0	 2	     1.0600	     0.9400;
	189	 1	 7.0	 2.0	 0.0	 0.0	 1	     0.9975	   -25.8400	 66.0	 3	     1.0600	     0.9400;
	190	 2	 0.0	 0.0	 0.0	 -150.0	 1	     1.0551	   -20.6200	 345.0	 3	     1.0600	     0.9400;
	191	 2	 489.0	 53.0	 0.0	 0.0	 1	     1.0435	    12.2500	 230.0	 3	     1.0600	     0.9400;
	192	 1	 800.0	 72.0	 0.0	 0.0	 1	     0.9374	   -11.1800	 230.0	 3	     1.0600	     0.9400;
	193	 1	 0.0	 0.0	 0.0	 0.0	 1	     0.9897	   -26.0900	 66.0	 3	     1.0600	     0.9400;
	194	 1	 0.0	 0.0	 0.0	 0.0	 1	     1.0489	   -19.2100	 345.0	 3	     1.0600	     0.9400;
	195	 1	 0.0	 0.0	 0.0	 0.0	 1	     1.0357	   -20.7900	 345.0	 3	     1.0600	     0.9400;
	196	 1	 10.0	 3.0	 0.0	 0.0	 1	     0.9695	   -25.3200	 115.0	 3	     1.0600	     0.9400;
	197	 1	 43.0	 14.0	 0.0	 0.0	 1	     0.9907	   -23.7200	 115.0	 3	     1.0600	     0.9400;
	198	 2	 64.0	 21.0	 0.0	 0.0	 1	     1.0150	   -20.5800	 115.0	 3	     1.0600	     0.9400;
	199	 1	 35.0	 12.0	 0.0	 0.0	 1	     0.9528	   -26.0500	 115.0	 3	     1.0600	     0.9400;
	200	 1	 27.0	 12.0	 0.0	 0.0	 1	     0.9550	   -25.9300	 115.0	 3	     1.0600	     0.9400;
	201	 1	 41.0	 14.0	 0.0	 0.0	 1	     0.9692	   -27.4900	 66.0	 1	     1.0600	     0.9400;
	202	 1	 38.0	 13.0	 0.0	 0.0	 1	     0.9908	   -25.3300	 66.0	 3	     1.0600	     0.9400;
	203	 1	 42.0	 14.0	 0.0	 0.0	 1	     1.0033	   -22.3500	 115.0	 3	     1.0600	     0.9400;
	204	 1	 72.0	 24.0	 0.0	 0.0	 1	     0.9718	   -25.7000	 66.0	 3	     1.0600	     0.9400;
	205	 1	 0.0	 -5.0	 0.0	 0.0	 1	     0.9838	   -26.0700	 66.0	 3	     1.0600	     0.9400;
	206	 1	 12.0	 2.0	 0.0	 0.0	 1	     0.9992	   -27.4100	 66.0	 3	     1.0600	     0.9400;
	207	 1	 -21.0	 -14.2	 0.0	 0.0	 1	     1.0137	   -27.4400	 66.0	 1	     1.0600	     0.9400;
	208	 1	 7.0	 2.0	 0.0	 0.0	 1	     0.9929	   -26.2800	 66.0	 3	     1.0600	     0.9400;
	209	 1	 38.0	 13.0	 0.0	 0.0	 1	     0.9999	   -25.6600	 66.0	 3	     1.0600	     0.9400;
	210	 1	 0.0	 0.0	 0.0	 0.0	 1	     0.9788	   -24.2200	 115.0	 3	     1.0600	     0.9400;
	211	 1	 96.0	 7.0	 0.0	 0.0	 1	     1.0017	   -23.3100	 115.0	 3	     1.0600	     0.9400;
	212	 1	 0.0	 0.0	 0.0	 0.0	 1	     1.0132	   -22.5100	 138.0	 3	     1.0600	     0.9400;
	213	 2	 0.0	 0.0	 0.0	 0.0	 1	     1.0100	   -11.6700	 16.5	 3	     1.0600	     0.9400;
	214	 1	 22.0	 16.0	 0.0	 0.0	 1	     0.9919	   -17.5300	 138.0	 3	     1.0600	     0.9400;
	215	 1	 47.0	 26.0	 0.0	 0.0	 1	     0.9866	   -20.2300	 138.0	 3	     1.0600	     0.9400;
	216	 1	 176.0	 105.0	 0.0	 0.0	 1	     0.9751	   -22.5300	 138.0	 3	     1.0600	     0.9400;
	217	 1	 100.0	 75.0	 0.0	 0.0	 1	     1.0215	   -22.2000	 138.0	 3	     1.0600	     0.9400;
	218	 1	 131.0	 96.0	 0.0	 0.0	 1	     1.0075	   -22.6300	 138.0	 3	     1.0600	     0.9400;
	219	 1	 0.0	 0.0	 0.0	 0.0	 1	     1.0554	   -21.1500	 345.0	 3	     1.0600	     0.9400;
	220	 2	 285.0	 100.0	 0.0	 0.0	 1	     1.0080	   -21.7300	 138.0	 3	     1.0600	     0.9400;
	221	 2	 171.0	 70.0	 0.0	 0.0	 1	     1.0000	   -22.4900	 138.0	 3	     1.0600	     0.9400;
...
];

%% generator data
%	bus	Pg	Qg	Qmax	Qmin	Vg	mBase	status	Pmax	Pmin	Pc1	Pc2	Qc1min	Qc1max	Qc2min	Qc2max	ramp_agc	ramp_10	ramp_30	ramp_q	apf
mpc.gen = [
	8	 0.0	 0.0	 10.0	 -10.0	 1.0153	 100.0	 1	 0	 0.0	 0.0	 0.0	 0.0	 0.0	 0.0	 0.0	 0.0	 0.0	 0.0	 0.0	 0.0; % SYNC
	10	 0.0	 0.0	 20.0	 -20.0	 1.0205	 100.0	 1	 0	 0.0	 0.0	 0.0	 0.0	 0.0	 0.0	 0.0	 0.0	 0.0	 0.0	 0.0	 0.0; % SYNC
	20	 0.0	 0.0	 20.0	 -20.0	 1.001	 100.0	 1	 0	 0.0	 0.0	 0.0	 0.0	 0.0	 0.0	 0.0	 0.0	 0.0	 0.0	 0.0	 0.0; % SYNC
	63	 0.0	 0.0	 25.0	 -25.0	 0.9583	 100.0	 1	 0	 0.0	 0.0	 0.0	 0.0	 0.0	 0.0	 0.0	 0.0	 0.0	 0.0	 0.0	 0.0; % SYNC
	76	 0.0	 0.0	 35.0	 12.0	 0.9632	 100.0	 1	 0	 0.0	 0.0	 0.0	 0.0	 0.0	 0.0	 0.0	 0.0	 0.0	 0.0	 0.0	 0.0; % SYNC
	84	 375.0	 0.0	 212.0	 -212.0	 1.025	 100.0	 1	 423	 0.0	 0.0	 0.0	 0.0	 0.0	 0.0	 0.0	 0.0	 0.0	 0.0	 0.0	 0.0; % NG
	91	 155.0	 0.0	 91.0	 -11.0	 1.052	 100.0	 1	 182	 0.0	 0.0	 0.0	 0.0	 0.0	 0.0	 0.0	 0.0	 0.0	 0.0	 0.0	 0.0; % NG
	92	 290.0	 0.0	 153.0	 -153.0	 1.052	 100.0	 1	 313	 0.0	 0.0	 0.0	 0.0	 0.0	 0.0	 0.0	 0.0	 0.0	 0.0	 0.0	 0.0; % NG
	98	 68.0	 0.0	 56.0	 -30.0	 1.0	 100.0	 1	 315	 0.0	 0.0	 0.0	 0.0	 0.0	 0.0	 0.0	 0.0	 0.0	 0.0	 0.0	 0.0; % COW
	108	 117.0	 0.0	 77.0	 -24.0	 0.99	 100.0	 1	 327	 0.0	 0.0	 0.0	 0.0	 0.0	 0.0	 0.0	 0.0	 0.0	 0.0	 0.0	 0.0; % COW
	119	 1930.0	 0.0	 985.0	 -500.0	 1.0435	 100.0	 1	 1969	 0.0	 0.0	 0.0	 0.0	 0.0	 0.0	 0.0	 0.0	 0.0	 0.0	 0.0	 0.0; % COW
	124	 240.0	 0.0	 120.0	 -60.0	 1.0233	 100.0	 1	 364	 0.0	 0.0	 0.0	 0.0	 0.0	 0.0	 0.0	 0.0	 0.0	 0.0	 0.0	 0.0; % NG
	125	 0.0	 0.0	 200.0	 -25.0	 1.0103	 100.0	 1	 0	 0.0	 0.0	 0.0	 0.0	 0.0	 0.0	 0.0	 0.0	 0.0	 0.0	 0.0	 0.0; % SYNC
	138	 0.0	 0.0	 350.0	 -125.0	 1.055	 100.0	 1	 0	 0.0	 0.0	 0.0	 0.0	 0.0	 0.0	 0.0	 0.0	 0.0	 0.0	 0.0	 0.0; % SYNC
	141	 281.0	 0.0	 75.0	 -50.0	 1.051	 100.0	 1	 322	 0.0	 0.0	 0.0	 0.0	 0.0	 0.0	 0.0	 0.0	 0.0	 0.0	 0.0	 0.0; % COW
	143	 696.0	 0.0	 300.0	 -100.0	 1.0435	 100.0	 1	 1090	 0.0	 0.0	 0.0	 0.0	 0.0	 0.0	 0.0	 0.0	 0.0	 0.0	 0.0	 0.0; % COW
	146	 84.0	 0.0	 35.0	 -15.0	 1.0528	 100.0	 1	 184	 0.0	 0.0	 0.0	 0.0	 0.0	 0.0	 0.0	 0.0	 0.0	 0.0	 0.0	 0.0; % NG
	147	 217.0	 0.0	 100.0	 -50.0	 1.0528	 100.0	 1	 237	 0.0	 0.0	 0.0	 0.0	 0.0	 0.0	 0.0	 0.0	 0.0	 0.0	 0.0	 0.0; % NG
	149	 103.0	 0.0	 50.0	 -25.0	 1.0735	 100.0	 1	 179	 0.0	 0.0	 0.0	 0.0	 0.0	 0.0	 0.0	 0.0	 0.0	 0.0	 0.0	 0.0; % NG
	152	 372.0	 0.0	 175.0	 -50.0	 1.0535	 100.0	 1	 389	 0.0	 0.0	 0.0	 0.0	 0.0	 0.0	 0.0	 0.0	 0.0	 0.0	 0.0	 0.0; % NG
	153	 216.0	 0.0	 90.0	 -50.0	 1.0435	 100.0	 1	 330	 0.0	 0.0	 0.0	 0.0	 0.0	 0.0	 0.0	 0.0	 0.0	 0.0	 0.0	 0.0; % NG
	156	 0.0	 0.0	 15.0	 -10.0	 0.963	 100.0	 1	 0	 0.0	 0.0	 0.0	 0.0	 0.0	 0.0	 0.0	 0.0	 0.0	 0.0	 0.0	 0.0; % SYNC
	170	 205.0	 0.0	 90.0	 -40.0	 0.929	 100.0	 1	 542	 0.0	 0.0	 0.0	 0.0	 0.0	 0.0	 0.0	 0.0	 0.0	 0.0	 0.0	 0.0; % NG
	171	 0.0	 0.0	 150.0	 -50.0	 0.9829	 100.0	 1	 0	 0.0	 0.0	 0.0	 0.0	 0.0	 0.0	 0.0	 0.0	 0.0	 0.0	 0.0	 0.0; % SYNC
	176	 228.0	 0.0	 90.0	 -45.0	 1.0522	 100.0	 1	 400	 0.0	 0.0	 0.0	 0.0	 0.0	 0.0	 0.0	 0.0	 0.0	 0.0	 0.0	 0.0; % NG
	177	 84.0	 0.0	 35.0	 -15.0	 1.0077	 100.0	 1	 270	 0.0	 0.0	 0.0	 0.0	 0.0	 0.0	 0.0	 0.0	 0.0	 0.0	 0.0	 0.0; % NG
	185	 200.0	 0.0	 80.0	 -50.0	 1.0522	 100.0	 1	 432	 0.0	 0.0	 0.0	 0.0	 0.0	 0.0	 0.0	 0.0	 0.0	 0.0	 0.0	 0.0; % NG
	186	 1200.0	 0.0	 400.0	 -100.0	 1.065	 100.0	 1	 1301	 0.0	 0.0	 0.0	 0.0	 0.0	 0.0	 0.0	 0.0	 0.0	 0.0	 0.0	 0.0; % COW
	187	 1200.0	 0.0	 400.0	 -100.0	 1.065	 100.0	 1	 1424	 0.0	 0.0	 0.0	 0.0	 0.0	 0.0	 0.0	 0.0	 0.0	 0.0	 0.0	 0.0; % COW
	190	 475.0	 0.0	 276.0	 -276.0	 1.0551	 100.0	 1	 551	 0.0	 0.0	 0.0	 0.0	 0.0	 0.0	 0.0	 0.0	 0.0	 0.0	 0.0	 0.0; % PEL
	191	 1973.0	 0.0	 1000.0	 -1000.0	 1.0435	 100.0	 1	 2087	 0.0	 0.0	 0.0	 0.0	 0.0	 0.0	 0.0	 0.0	 0.0	 0.0	 0.0	 0.0; % NUC
	198	 424.0	 0.0	 229.0	 -229.0	 1.015	 100.0	 1	 457	 0.0	 0.0	 0.0	 0.0	 0.0	 0.0	 0.0	 0.0	 0.0	 0.0	 0.0	 0.0; % NG
	213	 272.0	 0.0	 150.0	 -150.0	 1.01	 100.0	 1	 440	 0.0	 0.0	 0.0	 0.0	 0.0	 0.0	 0.0	 0.0	 0.0	 0.0	 0.0	 0.0; % COW
	220	 100.0	 0.0	 60.0	 -60.0	 1.008	 100.0	 1	 313	 0.0	 0.0	 0.0	 0.0	 0.0	 0.0	 0.0	 0.0	 0.0	 0.0	 0.0	 0.0; % NG
	221	 450.0	 0.0	 283.0	 -283.0	 1.0	 100.0	 1	 566	 0.0	 0.0	 0.0	 0.0	 0.0	 0.0	 0.0	 0.0	 0.0	 0.0	 0.0	 0.0; % COW
	222	 250.0	 0.0	 146.0	 -146.0	 1.05	 100.0	 1	 292	 0.0	 0.0	 0.0	 0.0	 0.0	 0.0	 0.0	 0.0	 0.0	 0.0	 0.0	 0.0; % NG
	227	 303.0	 0.0	 200.0	 -200.0	 1.0	 100.0	 1	 400	 0.0	 0.0	 0.0	 0.0	 0.0	 0.0	 0.0	 0.0	 0.0	 0.0	 0.0	 0.0; % NG
	230	 345.0	 0.0	 229.0	 -229.0	 1.04	 100.0	 1	 457	 0.0	 0.0	 0.0	 0.0	 0.0	 0.0	 0.0	 0.0	 0.0	 0.0	 0.0	 0.0; % NG
	233	 300.0	 0.0	 500.0	 -500.0	 1.0	 100.0	 1	 1259	 0.0	 0.0	 0.0	 0.0	 0.0	 0.0	 0.0	 0.0	 0.0	 0.0	 0.0	 0.0; % COW
	236	 600.0	 0.0	 300.0	 -300.0	 1.0165	 100.0	 1	 603	 0.0	 0.0	 0.0	 0.0	 0.0	 0.0	 0.0	 0.0	 0.0	 0.0	 0.0	 0.0; % COW
	238	 250.0	 0.0	 141.0	 -141.0	 1.01	 100.0	 1	 281	 0.0	 0.0	 0.0	 0.0	 0.0	 0.0	 0.0	 0.0	 0.0	 0.0	 0.0	 0.0; % NG
	239	 550.0	 0.0	 328.0	 -328.0	 1.0	 100.0	 1	 656	 0.0	 0.0	 0.0	 0.0	 0.0	 0.0	 0.0	 0.0	 0.0	 0.0	 0.0	 0.0; % NG
	241	 575.43	 0.0	 297.0	 -297.0	 1.05	 100.0	 1	 594	 0.0	 0.0	 0.0	 0.0	 0.0	 0.0	 0.0	 0.0	 0.0	 0.0	 0.0	 0.0; % COW
	242	 170.0	 0.0	 100.0	 40.0	 0.993	 100.0	 1	 293	 0.0	 0.0	 0.0	 0.0	 0.0	 0.0	 0.0	 0.0	 0.0	 0.0	 0.0	 0.0; % NG
	243	 84.0	 0.0	 49.0	 40.0	 1.01	 100.0	 1	 98	 0.0	 0.0	 0.0	 0.0	 0.0	 0.0	 0.0	 0.0	 0.0	 0.0	 0.0	 0.0; % NG
	7001	 467.0	 0.0	 210.0	 -210.0	 1.0507	 100.0	 1	 1084	 0.0	 0.0	 0.0	 0.0	 0.0	 0.0	 0.0	 0.0	 0.0	 0.0	 0.0	 0.0; % COW
	7002	 623.0	 0.0	 280.0	 -280.0	 1.0507	 100.0	 1	 814	 0.0	 0.0	 0.0	 0.0	 0.0	 0.0	 0.0	 0.0	 0.0	 0.0	 0.0	 0.0; % COW
	7003	 1210.0	 0.0	 420.0	 -420.0	 1.0323	 100.0	 1	 1798	 0.0	 0.0	 0.0	 0.0	 0.0	 0.0	 0.0	 0.0	 0.0	 0.0	 0.0	 0.0; % COW
	7011	 234.0	 0.0	 100.0	 -100.0	 1.0145	 100.0	 1	 338	 0.0	 0.0	 0.0	 0.0	 0.0	 0.0	 0.0	 0.0	 0.0	 0.0	 0.0	 0.0; % NG
	7012	 372.0	 0.0	 191.0	 -191.0	 1.0507	 100.0	 1	 382	 0.0	 0.0	 0.0	 0.0	 0.0	 0.0	 0.0	 0.0	 0.0	 0.0	 0.0	 0.0; % COW
	7017	 330.0	 0.0	 231.0	 0.0	 1.0507	 100.0	 1	 461	 0.0	 0.0	 0.0	 0.0	 0.0	 0.0	 0.0	 0.0	 0.0	 0.0	 0.0	 0.0; % NG
	7023	 185.0	 0.0	 101.0	 0.0	 1.0507	 100.0	 1	 202	 0.0	 0.0	 0.0	 0.0	 0.0	 0.0	 0.0	 0.0	 0.0	 0.0	 0.0	 0.0; % NG
	7024	 410.0	 0.0	 224.0	 -224.0	 1.029	 100.0	 1	 503	 0.0	 0.0	 0.0	 0.0	 0.0	 0.0	 0.0	 0.0	 0.0	 0.0	 0.0	 0.0; % NG
	7039	 500.0	 0.0	 200.0	 -200.0	 1.05	 100.0	 1	 534	 0.0	 0.0	 0.0	 0.0	 0.0	 0.0	 0.0	 0.0	 0.0	 0.0	 0.0	 0.0; % COW
	7044	 37.0	 0.0	 22.0	 0.0	 1.0145	 100.0	 1	 43	 0.0	 0.0	 0.0	 0.0	 0.0	 0.0	 0.0	 0.0	 0.0	 0.0	 0.0	 0.0; % NG
	7049	 0.0	 0.0	 10.0	 0.0	 1.0507	 100.0	 1	 1366	 0.0	 0.0	 0.0	 0.0	 0.0	 0.0	 0.0	 0.0	 0.0	 0.0	 0.0	 0.0; % NUC
	7055	 45.0	 0.0	 25.0	 0.0	 0.9967	 100.0	 1	 63	 0.0	 0.0	 0.0	 0.0	 0.0	 0.0	 0.0	 0.0	 0.0	 0.0	 0.0	 0.0; % PEL
	7057	 165.0	 0.0	 84.0	 -84.0	 1.0212	 100.0	 1	 167	 0.0	 0.0	 0.0	 0.0	 0.0	 0.0	 0.0	 0.0	 0.0	 0.0	 0.0	 0.0; % NG
	7061	 400.0	 0.0	 150.0	 -150.0	 1.0145	 100.0	 1	 451	 0.0	 0.0	 0.0	 0.0	 0.0	 0.0	 0.0	 0.0	 0.0	 0.0	 0.0	 0.0; % NG
	7062	 400.0	 0.0	 150.0	 0.0	 1.0017	 100.0	 1	 583	 0.0	 0.0	 0.0	 0.0	 0.0	 0.0	 0.0	 0.0	 0.0	 0.0	 0.0	 0.0; % NG
	7071	 116.0	 0.0	 87.0	 0.0	 0.9893	 100.0	 1	 308	 0.0	 0.0	 0.0	 0.0	 0.0	 0.0	 0.0	 0.0	 0.0	 0.0	 0.0	 0.0; % COW
	7130	 1292.0	 0.0	 600.0	 -100.0	 1.0507	 100.0	 1	 1354	 0.0	 0.0	 0.0	 0.0	 0.0	 0.0	 0.0	 0.0	 0.0	 0.0	 0.0	 0.0; % NUC
	7139	 700.0	 0.0	 325.0	 -125.0	 1.0507	 100.0	 1	 946	 0.0	 0.0	 0.0	 0.0	 0.0	 0.0	 0.0	 0.0	 0.0	 0.0	 0.0	 0.0; % COW
	7166	 553.0	 0.0	 280.0	 -200.0	 1.0145	 100.0	 1	 559	 0.0	 0.0	 0.0	 0.0	 0.0	 0.0	 0.0	 0.0	 0.0	 0.0	 0.0	 0.0; % COW
	9002	 0.0	 0.0	 2.0	 -2.0	 0.9945	 100.0	 1	 0	 0.0	 0.0	 0.0	 0.0	 0.0	 0.0	 0.0	 0.0	 0.0	 0.0	 0.0	 0.0; % SYNC
	9051	 0.0	 0.0	 17.35	 -17.35	 1.0	 100.0	 1	 0	 0.0	 0.0	 0.0	 0.0	 0.0	 0.0	 0.0	 0.0	 0.0	 0.0	 0.0	 0.0; % SYNC
	9053	 0.0	 0.0	 12.83	 -12.8	 1.0	 100.0	 1	 0	 0.0	 0.0	 0.0	 0.0	 0.0	 0.0	 0.0	 0.0	 0.0	 0.0	 0.0	 0.0; % SYNC
	9054	 50.0	 0.0	 38.0	 -38.0	 1.0	 100.0	 1	 174	 0.0	 0.0	 0.0	 0.0	 0.0	 0.0	 0.0	 0.0	 0.0	 0.0	 0.0	 0.0; % NG
	9055	 8.0	 0.0	 6.0	 -6.0	 1.0	 100.0	 1	 22	 0.0	 0.0	 0.0	 0.0	 0.0	 0.0	 0.0	 0.0	 0.0	 0.0	 0.0	 0.0; % NG
];

%% generator cost data
%	2	startup	shutdown	n	c(n-1)	...	c0
mpc.gencost = [
	2	 0.0	 0.0	 3	   0.000000	   0.000000	   0.000000; % SYNC
	2	 0.0	 0.0	 3	   0.000000	   0.000000	   0.000000; % SYNC
	2	 0.0	 0.0	 3	   0.000000	   0.000000	   0.000000; % SYNC
	2	 0.0	 0.0	 3	   0.000000	   0.000000	   0.000000; % SYNC
	2	 0.0	 0.0	 3	   0.000000	   0.000000	   0.000000; % SYNC
	2	 0.0	 0.0	 3	   0.000000	   0.862937	   0.000000; % NG
	2	 0.0	 0.0	 3	   0.000000	   1.145219	   0.000000; % NG
	2	 0.0	 0.0	 3	   0.000000	   0.855144	   0.000000; % NG
	2	 0.0	 0.0	 3	   0.000000	   0.623184	   0.000000; % COW
	2	 0.0	 0.0	 3	   0.000000	   0.436942	   0.000000; % COW
	2	 0.0	 0.0	 3	   0.000000	   0.860739	   0.000000; % COW
	2	 0.0	 0.0	 3	   0.000000	   1.165277	   0.000000; % NG
	2	 0.0	 0.0	 3	   0.000000	   0.000000	   0.000000; % SYNC
	2	 0.0	 0.0	 3	   0.000000	   0.000000	   0.000000; % SYNC
	2	 0.0	 0.0	 3	   0.000000	   0.736240	   0.000000; % COW
	2	 0.0	 0.0	 3	   0.000000	   0.518890	   0.000000; % COW
	2	 0.0	 0.0	 3	   0.000000	   0.950470	   0.000000; % NG
	2	 0.0	 0.0	 3	   0.000000	   1.035443	   0.000000; % NG
	2	 0.0	 0.0	 3	   0.000000	   1.000865	   0.000000; % NG
	2	 0.0	 0.0	 3	   0.000000	   1.205069	   0.000000; % NG
	2	 0.0	 0.0	 3	   0.000000	   1.006003	   0.000000; % NG
	2	 0.0	 0.0	 3	   0.000000	   0.000000	   0.000000; % SYNC
	2	 0.0	 0.0	 3	   0.000000	   1.296830	   0.000000; % NG
	2	 0.0	 0.0	 3	   0.000000	   0.000000	   0.000000; % SYNC
	2	 0.0	 0.0	 3	   0.000000	   0.881521	   0.000000; % NG
	2	 0.0	 0.0	 3	   0.000000	   1.077258	   0.000000; % NG
	2	 0.0	 0.0	 3	   0.000000	   0.881766	   0.000000; % NG
	2	 0.0	 0.0	 3	   0.000000	   0.680561	   0.000000; % COW
	2	 0.0	 0.0	 3	   0.000000	   0.525815	   0.000000; % COW
	2	 0.0	 0.0	 3	   0.000000	   6.589820	   0.000000; % PEL
	2	 0.0	 0.0	 3	   0.000000	   0.238746	   0.000000; % NUC
	2	 0.0	 0.0	 3	   0.000000	   1.296577	   0.000000; % NG
	2	 0.0	 0.0	 3	   0.000000	   0.766488	   0.000000; % COW
	2	 0.0	 0.0	 3	   0.000000	   1.189872	   0.000000; % NG
	2	 0.0	 0.0	 3	   0.000000	   0.793755	   0.000000; % COW
	2	 0.0	 0.0	 3	   0.000000	   1.151968	   0.000000; % NG
	2	 0.0	 0.0	 3	   0.000000	   0.967289	   0.000000; % NG
	2	 0.0	 0.0	 3	   0.000000	   1.351678	   0.000000; % NG
	2	 0.0	 0.0	 3	   0.000000	   1.092796	   0.000000; % COW
	2	 0.0	 0.0	 3	   0.000000	   0.717838	   0.000000; % COW
	2	 0.0	 0.0	 3	   0.000000	   0.816196	   0.000000; % NG
	2	 0.0	 0.0	 3	   0.000000	   0.829873	   0.000000; % NG
	2	 0.0	 0.0	 3	   0.000000	   0.965277	   0.000000; % COW
	2	 0.0	 0.0	 3	   0.000000	   1.026426	   0.000000; % NG
	2	 0.0	 0.0	 3	   0.000000	   1.162522	   0.000000; % NG
	2	 0.0	 0.0	 3	   0.000000	   0.464375	   0.000000; % COW
	2	 0.0	 0.0	 3	   0.000000	   0.643629	   0.000000; % COW
	2	 0.0	 0.0	 3	   0.000000	   0.979373	   0.000000; % COW
	2	 0.0	 0.0	 3	   0.000000	   1.101765	   0.000000; % NG
	2	 0.0	 0.0	 3	   0.000000	   0.668355	   0.000000; % COW
	2	 0.0	 0.0	 3	   0.000000	   0.963298	   0.000000; % NG
	2	 0.0	 0.0	 3	   0.000000	   0.910148	   0.000000; % NG
	2	 0.0	 0.0	 3	   0.000000	   1.070991	   0.000000; % NG
	2	 0.0	 0.0	 3	   0.000000	   0.440401	   0.000000; % COW
	2	 0.0	 0.0	 3	   0.000000	   0.698679	   0.000000; % NG
	2	 0.0	 0.0	 3	   0.000000	   0.220280	   0.000000; % NUC
	2	 0.0	 0.0	 3	   0.000000	   6.638181	   0.000000; % PEL
	2	 0.0	 0.0	 3	   0.000000	   1.151176	   0.000000; % NG
	2	 0.0	 0.0	 3	   0.000000	   0.798996	   0.000000; % NG
	2	 0.0	 0.0	 3	   0.000000	   0.940150	   0.000000; % NG
	2	 0.0	 0.0	 3	   0.000000	   1.021886	   0.000000; % COW
	2	 0.0	 0.0	 3	   0.000000	   0.200801	   0.000000; % NUC
	2	 0.0	 0.0	 3	   0.000000	   0.668946	   0.000000; % COW
	2	 0.0	 0.0	 3	   0.000000	   0.977695	   0.000000; % COW
	2	 0.0	 0.0	 3	   0.000000	   0.000000	   0.000000; % SYNC
	2	 0.0	 0.0	 3	   0.000000	   0.000000	   0.000000; % SYNC
	2	 0.0	 0.0	 3	   0.000000	   0.000000	   0.000000; % SYNC
	2	 0.0	 0.0	 3	   0.000000	   1.139101	   0.000000; % NG
	2	 0.0	 0.0	 3	   0.000000	   0.887970	   0.000000; % NG
];

%% branch data
%	fbus	tbus	r	x	b	rateA	rateB	rateC	ratio	angle	status	angmin	angmax
mpc.branch = [
	37	 9001	 6e-05	 0.00046	 0.0	 9900.0	 63229	 75.0	 1.0082	 0.0	 1	 -30.0	 30.0;
	9001	 9005	 0.0008	 0.00348	 0.0	 8214	 8214	 8214	 0.0	 0.0	 1	 -30.0	 30.0;
	9001	 9006	 0.02439	 0.43682	 0.0	 67	 67	 67	 0.9668	 0.0	 1	 -30.0	 30.0;
	9001	 9012	 0.03624	 0.64898	 0.0	 45	 45	 45	 0.9796	 0.0	 1	 -30.0	 30.0;
	9005	 9051	 0.01578	 0.37486	 0.0	 78	 78	 78	 1.0435	 0.0	 1	 -30.0	 30.0;
	9005	 9052	 0.01578	 0.37486	 0.0	 78	 78	 78	 0.9391	 0.0	 1	 -30.0	 30.0;
	9005	 9053	 0.01602	 0.38046	 0.0	 77	 77	 77	 1.0435	 0.0	 1	 -30.0	 30.0;
	9005	 9054	 0.0	 0.152	 0.0	 192	 192	 192	 1.0435	 0.0	 1	 -30.0	 30.0;
	9005	 9055	 0.0	 0.8	 0.0	 36	 36	 36	 1.0435	 0.0	 1	 -30.0	 30.0;
	9006	 9007	 0.05558	 0.24666	 0.0	 116	 116	 116	 0.0	 0.0	 1	 -30.0	 30.0;
	9006	 9003	 0.11118	 0.49332	 0.0	 58	 58	 58	 0.0	 0.0	 1	 -30.0	 30.0;
	9006	 9003	 0.11118	 0.49332	 0.0	 58	 58	 58	 0.0	 0.0	 1	 -30.0	 30.0;
	9012	 9002	 0.07622	 0.43286	 0.0	 66	 66	 66	 0.0	 0.0	 1	 -30.0	 30.0;
	9012	 9002	 0.07622	 0.43286	 0.0	 66	 66	 66	 0.0	 0.0	 1	 -30.0	 30.0;
	9002	 9021	 0.0537	 0.07026	 0.0	 331	 331	 331	 0.0	 0.0	 1	 -30.0	 30.0;
	9021	 9023	 1.1068	 0.95278	 0.0	 20	 20	 20	 0.0	 0.0	 1	 -30.0	 30.0;
	9021	 9022	 0.44364	 2.8152	 0.0	 10	 10	 10	 1.0	 0.0	 1	 -30.0	 30.0;
	9002	 9024	 0.50748	 3.2202	 0.0	 8	 8	 8	 1.0	 0.0	 1	 -30.0	 30.0;
	9023	 9025	 0.66688	 3.944	 0.0	 7	 7	 7	 1.0	 0.0	 1	 -30.0	 30.0;
	9023	 9026	 0.6113	 3.6152	 0.0	 7	 7	 7	 1.0	 0.0	 1	 -30.0	 30.0;
	9007	 9071	 0.4412	 2.9668	 0.0	 9	 9	 9	 1.0	 0.0	 1	 -30.0	 30.0;
	9007	 9072	 0.30792	 2.057	 0.0	 14	 14	 14	 1.0	 0.0	 1	 -30.0	 30.0;
	9007	 9003	 0.0558	 0.24666	 0.0	 115	 115	 115	 0.0	 0.0	 1	 -30.0	 30.0;
	9003	 9031	 0.73633	 4.6724	 0.0	 6	 6	 6	 1.0	 0.0	 1	 -30.0	 30.0;
	9003	 9032	 0.76978	 4.8846	 0.0	 5	 5	 5	 1.0	 0.0	 1	 -30.0	 30.0;
	9003	 9033	 0.75732	 4.8056	 0.0	 6	 6	 6	 1.0	 0.0	 1	 -30.0	 30.0;
	9003	 9044	 0.07378	 0.06352	 0.0	 301	 301	 301	 0.0	 0.0	 1	 -30.0	 30.0;
	9044	 9004	 0.03832	 0.02894	 0.0	 610	 610	 610	 0.0	 0.0	 1	 -30.0	 30.0;
	9004	 9041	 0.36614	 2.456	 0.0	 11	 11	 11	 1.0	 0.0	 1	 -30.0	 30.0;
	9004	 9042	 1.0593	 5.4536	 0.0	 5	 5	 5	 1.0	 0.0	 1	 -30.0	 30.0;
	9004	 9043	 0.1567	 1.6994	 0.0	 17	 17	 17	 1.0	 0.0	 1	 -30.0	 30.0;
	9003	 9034	 0.13006	 1.3912	 0.0	 20	 20	 20	 1.0	 0.0	 1	 -30.0	 30.0;
	9003	 9035	 0.54484	 3.4572	 0.0	 8	 8	 8	 1.0	 0.0	 1	 -30.0	 30.0;
	9003	 9036	 0.15426	 1.6729	 0.0	 17	 17	 17	 1.0	 0.0	 1	 -30.0	 30.0;
	9003	 9037	 0.3849	 2.5712	 0.0	 11	 11	 11	 1.0	 0.0	 1	 -30.0	 30.0;
	9003	 9038	 0.4412	 2.9668	 0.0	 9	 9	 9	 1.0	 0.0	 1	 -30.0	 30.0;
	9012	 9121	 0.23552	 0.99036	 0.0	 28	 28	 28	 0.0	 0.0	 1	 -30.0	 30.0;
	9053	 9533	 0.0	 0.75	 0.0	 39	 39	 39	 0.9583	 0.0	 1	 -30.0	 30.0;
	1	 5	 0.001	 0.006	 0.0	 4822	 4822	 4822	 0.0	 0.0	 1	 -30.0	 30.0;
	2	 6	 0.001	 0.009	 0.0	 3239	 3239	 3239	 0.0	 0.0	 1	 -30.0	 30.0;
	2	 8	 0.006	 0.027	 0.054	 1060	 1060	 1060	 0.0	 0.0	 1	 -30.0	 30.0;
	3	 7	 0.0	 0.003	 0.0	 9777	 9777	 9777	 0.0	 0.0	 1	 -30.0	 30.0;
	3	 19	 0.008	 0.069	 0.139	 422	 422	 422	 0.0	 0.0	 1	 -30.0	 30.0;
	3	 150	 0.001	 0.007	 0.0	 4148	 4148	 4148	 0.0	 0.0	 1	 -30.0	 30.0;
	4	 16	 0.002	 0.019	 1.127	 1535	 1535	 1535	 0.0	 0.0	 1	 -30.0	 30.0;
	5	 9	 0.006	 0.029	 0.018	 990	 990	 990	 0.0	 0.0	 1	 -30.0	 30.0;
	7	 12	 0.001	 0.009	 0.07	 3239	 3239	 3239	 0.0	 0.0	 1	 -30.0	 30.0;
	7	 131	 0.001	 0.007	 0.014	 4148	 4148	 4148	 0.0	 0.0	 1	 -30.0	 30.0;
	8	 11	 0.013	 0.0595	 0.033	 481	 481	 481	 0.0	 0.0	 1	 -30.0	 30.0;
	8	 14	 0.013	 0.042	 0.081	 667	 667	 667	 0.0	 0.0	 1	 -30.0	 30.0;
	9	 11	 0.006	 0.027	 0.013	 1060	 1060	 1060	 0.0	 0.0	 1	 -30.0	 30.0;
	11	 13	 0.008	 0.034	 0.018	 839	 839	 839	 0.0	 0.0	 1	 -30.0	 30.0;
	12	 21	 0.002	 0.015	 0.118	 1938	 1938	 1938	 0.0	 0.0	 1	 -30.0	 30.0;
	13	 20	 0.006	 0.034	 0.016	 849	 849	 849	 0.0	 0.0	 1	 -30.0	 30.0;
	14	 15	 0.014	 0.042	 0.097	 662	 662	 662	 0.0	 0.0	 1	 -30.0	 30.0;
	15	 37	 0.065	 0.248	 0.121	 114	 114	 114	 0.0	 0.0	 1	 -30.0	 30.0;
	15	 89	 0.099	 0.248	 0.035	 109	 109	 109	 0.0	 0.0	 1	 -30.0	 30.0;
	15	 90	 0.096	 0.363	 0.048	 78	 78	 78	 0.0	 0.0	 1	 -30.0	 30.0;
	16	 42	 0.002	 0.022	 1.28	 1327	 1327	 1327	 0.0	 0.0	 1	 -30.0	 30.0;
	19	 21	 0.002	 0.018	 0.036	 1619	 1619	 1619	 0.0	 0.0	 1	 -30.0	 30.0;
	19	 87	 0.013	 0.08	 0.151	 361	 361	 361	 0.0	 0.0	 1	 -30.0	 30.0;
	20	 22	 0.016	 0.033	 0.015	 799	 799	 799	 0.0	 0.0	 1	 -30.0	 30.0;
	20	 27	 0.069	 0.186	 0.098	 147	 147	 147	 0.0	 0.0	 1	 -30.0	 30.0;
	21	 24	 0.004	 0.034	 0.28	 856	 856	 856	 0.0	 0.0	 1	 -30.0	 30.0;
	22	 23	 0.052	 0.111	 0.05	 239	 239	 239	 0.0	 0.0	 1	 -30.0	 30.0;
	23	 25	 0.019	 0.039	 0.018	 676	 676	 676	 0.0	 0.0	 1	 -30.0	 30.0;
	24	 319	 0.007	 0.068	 0.134	 429	 429	 429	 0.0	 0.0	 1	 -30.0	 30.0;
	25	 26	 0.036	 0.071	 0.034	 368	 368	 368	 0.0	 0.0	 1	 -30.0	 30.0;
	26	 27	 0.045	 0.12	 0.065	 228	 228	 228	 0.0	 0.0	 1	 -30.0	 30.0;
	26	 320	 0.043	 0.13	 0.014	 214	 214	 214	 0.0	 0.0	 1	 -30.0	 30.0;
	33	 34	 0.0	 0.063	 0.0	 465	 465	 465	 0.0	 0.0	 1	 -30.0	 30.0;
	33	 38	 0.0025	 0.012	 0.013	 2392	 2392	 2392	 0.0	 0.0	 1	 -30.0	 30.0;
	33	 40	 0.006	 0.029	 0.02	 990	 990	 990	 0.0	 0.0	 1	 -30.0	 30.0;
	33	 41	 0.007	 0.043	 0.026	 673	 673	 673	 0.0	 0.0	 1	 -30.0	 30.0;
	34	 42	 0.001	 0.008	 0.042	 3638	 3638	 3638	 0.0	 0.0	 1	 -30.0	 30.0;
	35	 72	 0.012	 0.06	 0.008	 479	 479	 479	 0.0	 0.0	 1	 -30.0	 30.0;
	35	 76	 0.006	 0.014	 0.002	 1925	 1925	 1925	 0.0	 0.0	 1	 -30.0	 30.0;
	35	 77	 0.01	 0.029	 0.003	 956	 956	 956	 0.0	 0.0	 1	 -30.0	 30.0;
	36	 88	 0.004	 0.027	 0.043	 1074	 1074	 1074	 0.0	 0.0	 1	 -30.0	 30.0;
	37	 38	 0.008	 0.047	 0.008	 615	 615	 615	 0.0	 0.0	 1	 -30.0	 30.0;
	37	 40	 0.022	 0.064	 0.007	 433	 433	 433	 0.0	 0.0	 1	 -30.0	 30.0;
	37	 41	 0.01	 0.036	 0.02	 785	 785	 785	 0.0	 0.0	 1	 -30.0	 30.0;
	37	 49	 0.017	 0.081	 0.048	 354	 354	 354	 0.0	 0.0	 1	 -30.0	 30.0;
	37	 89	 0.102	 0.254	 0.033	 107	 107	 107	 0.0	 0.0	 1	 -30.0	 30.0;
	37	 90	 0.047	 0.127	 0.016	 216	 216	 216	 0.0	 0.0	 1	 -30.0	 30.0;
	38	 41	 0.008	 0.037	 0.02	 774	 774	 774	 0.0	 0.0	 1	 -30.0	 30.0;
	38	 43	 0.032	 0.087	 0.04	 316	 316	 316	 0.0	 0.0	 1	 -30.0	 30.0;
	39	 42	 0.0006	 0.0064	 0.404	 4563	 4563	 4563	 0.0	 0.0	 1	 -30.0	 30.0;
	40	 48	 0.026	 0.154	 0.022	 187	 187	 187	 0.0	 0.0	 1	 -30.0	 30.0;
	41	 42	 0.0	 0.029	 0.0	 1011	 1011	 1011	 0.0	 0.0	 1	 -30.0	 30.0;
	41	 49	 0.065	 0.191	 0.02	 145	 145	 145	 0.0	 0.0	 1	 -30.0	 30.0;
	41	 51	 0.031	 0.089	 0.036	 311	 311	 311	 0.0	 0.0	 1	 -30.0	 30.0;
	42	 46	 0.002	 0.014	 0.806	 2074	 2074	 2074	 0.0	 0.0	 1	 -30.0	 30.0;
	43	 44	 0.026	 0.072	 0.035	 383	 383	 383	 0.0	 0.0	 1	 -30.0	 30.0;
	43	 48	 0.095	 0.262	 0.032	 105	 105	 105	 0.0	 0.0	 1	 -30.0	 30.0;
	43	 53	 0.013	 0.039	 0.016	 713	 713	 713	 0.0	 0.0	 1	 -30.0	 30.0;
	44	 47	 0.027	 0.084	 0.039	 332	 332	 332	 0.0	 0.0	 1	 -30.0	 30.0;
	44	 54	 0.028	 0.084	 0.037	 331	 331	 331	 0.0	 0.0	 1	 -30.0	 30.0;
	45	 60	 0.007	 0.041	 0.312	 705	 705	 705	 0.0	 0.0	 1	 -30.0	 30.0;
	45	 74	 0.009	 0.054	 0.411	 535	 535	 535	 0.0	 0.0	 1	 -30.0	 30.0;
	46	 81	 0.005	 0.042	 0.69	 693	 693	 693	 0.0	 0.0	 1	 -30.0	 30.0;
	47	 73	 0.052	 0.145	 0.073	 190	 190	 190	 0.0	 0.0	 1	 -30.0	 30.0;
	47	 113	 0.043	 0.118	 0.013	 233	 233	 233	 0.0	 0.0	 1	 -30.0	 30.0;
	48	 107	 0.025	 0.062	 0.007	 438	 438	 438	 0.0	 0.0	 1	 -30.0	 30.0;
	49	 51	 0.031	 0.094	 0.043	 296	 296	 296	 0.0	 0.0	 1	 -30.0	 30.0;
	51	 52	 0.037	 0.109	 0.049	 254	 254	 254	 0.0	 0.0	 1	 -30.0	 30.0;
	52	 55	 0.027	 0.08	 0.036	 347	 347	 347	 0.0	 0.0	 1	 -30.0	 30.0;
	53	 54	 0.025	 0.073	 0.035	 380	 380	 380	 0.0	 0.0	 1	 -30.0	 30.0;
	54	 55	 0.035	 0.103	 0.047	 269	 269	 269	 0.0	 0.0	 1	 -30.0	 30.0;
	55	 57	 0.065	 0.169	 0.082	 161	 161	 161	 0.0	 0.0	 1	 -30.0	 30.0;
	57	 58	 0.046	 0.08	 0.036	 317	 317	 317	 0.0	 0.0	 1	 -30.0	 30.0;
	57	 63	 0.159	 0.537	 0.071	 52	 52	 52	 0.0	 0.0	 1	 -30.0	 30.0;
	58	 59	 0.009	 0.026	 0.005	 1066	 1066	 1066	 0.0	 0.0	 1	 -30.0	 30.0;
	59	 61	 0.002	 0.013	 0.015	 2230	 2230	 2230	 0.0	 0.0	 1	 -30.0	 30.0;
	60	 62	 0.009	 0.065	 0.485	 446	 446	 446	 0.0	 0.0	 1	 -30.0	 30.0;
	62	 64	 0.016	 0.105	 0.203	 276	 276	 276	 0.0	 0.0	 1	 -30.0	 30.0;
	62	 144	 0.001	 0.007	 0.013	 4148	 4148	 4148	 0.0	 0.0	 1	 -30.0	 30.0;
	63	 526	 0.0265	 0.172	 0.026	 168	 168	 168	 0.0	 0.0	 1	 -30.0	 30.0;
	69	 211	 0.051	 0.232	 0.028	 123	 123	 123	 0.0	 0.0	 1	 -30.0	 30.0;
	69	 79	 0.051	 0.157	 0.023	 177	 177	 177	 0.0	 0.0	 1	 -30.0	 30.0;
	70	 71	 0.032	 0.1	 0.062	 279	 279	 279	 0.0	 0.0	 1	 -30.0	 30.0;
	70	 528	 0.02	 0.1234	 0.028	 234	 234	 234	 0.0	 0.0	 1	 -30.0	 30.0;
	71	 72	 0.036	 0.131	 0.068	 215	 215	 215	 0.0	 0.0	 1	 -30.0	 30.0;
	71	 73	 0.034	 0.099	 0.047	 280	 280	 280	 0.0	 0.0	 1	 -30.0	 30.0;
	72	 77	 0.018	 0.087	 0.011	 330	 330	 330	 0.0	 0.0	 1	 -30.0	 30.0;
	72	 531	 0.0256	 0.193	 0.0	 150	 150	 150	 0.0	 0.0	 1	 -30.0	 30.0;
	73	 76	 0.021	 0.057	 0.03	 482	 482	 482	 0.0	 0.0	 1	 -30.0	 30.0;
	73	 79	 0.018	 0.052	 0.018	 533	 533	 533	 0.0	 0.0	 1	 -30.0	 30.0;
	74	 88	 0.004	 0.027	 0.05	 1074	 1074	 1074	 0.0	 0.0	 1	 -30.0	 30.0;
	74	 562	 0.0286	 0.2013	 0.379	 144	 144	 144	 0.0	 0.0	 1	 -30.0	 30.0;
	76	 77	 0.016	 0.043	 0.004	 639	 639	 639	 0.0	 0.0	 1	 -30.0	 30.0;
	77	 78	 0.001	 0.006	 0.007	 4822	 4822	 4822	 0.0	 0.0	 1	 -30.0	 30.0;
	77	 80	 0.014	 0.07	 0.038	 410	 410	 410	 0.0	 0.0	 1	 -30.0	 30.0;
	77	 552	 0.0891	 0.2676	 0.029	 103	 103	 103	 0.0	 0.0	 1	 -30.0	 30.0;
	77	 609	 0.0782	 0.2127	 0.022	 129	 129	 129	 0.0	 0.0	 1	 -30.0	 30.0;
	78	 79	 0.006	 0.022	 0.011	 1286	 1286	 1286	 0.0	 0.0	 1	 -30.0	 30.0;
	78	 84	 0.0	 0.036	 0.0	 814	 814	 814	 0.0	 0.0	 1	 -30.0	 30.0;
	79	 211	 0.099	 0.375	 0.051	 75	 75	 75	 0.0	 0.0	 1	 -30.0	 30.0;
	80	 211	 0.022	 0.107	 0.058	 268	 268	 268	 0.0	 0.0	 1	 -30.0	 30.0;
	81	 194	 0.0035	 0.033	 0.53	 883	 883	 883	 0.0	 0.0	 1	 -30.0	 30.0;
	81	 195	 0.0035	 0.033	 0.53	 883	 883	 883	 0.0	 0.0	 1	 -30.0	 30.0;
	85	 86	 0.008	 0.064	 0.128	 454	 454	 454	 0.0	 0.0	 1	 -30.0	 30.0;
	86	 87	 0.012	 0.093	 0.183	 312	 312	 312	 0.0	 0.0	 1	 -30.0	 30.0;
	86	 323	 0.006	 0.048	 0.092	 606	 606	 606	 0.0	 0.0	 1	 -30.0	 30.0;
	89	 91	 0.047	 0.119	 0.014	 229	 229	 229	 0.0	 0.0	 1	 -30.0	 30.0;
	90	 92	 0.032	 0.174	 0.024	 165	 165	 165	 0.0	 0.0	 1	 -30.0	 30.0;
	91	 94	 0.1	 0.253	 0.031	 107	 107	 107	 0.0	 0.0	 1	 -30.0	 30.0;
	91	 97	 0.022	 0.077	 0.039	 366	 366	 366	 0.0	 0.0	 1	 -30.0	 30.0;
	92	 103	 0.019	 0.144	 0.017	 201	 201	 201	 0.0	 0.0	 1	 -30.0	 30.0;
	92	 105	 0.017	 0.092	 0.012	 313	 313	 313	 0.0	 0.0	 1	 -30.0	 30.0;
	94	 97	 0.278	 0.427	 0.043	 57	 57	 57	 0.0	 0.0	 1	 -30.0	 30.0;
	97	 100	 0.022	 0.053	 0.007	 511	 511	 511	 0.0	 0.0	 1	 -30.0	 30.0;
	97	 102	 0.038	 0.092	 0.012	 294	 294	 294	 0.0	 0.0	 1	 -30.0	 30.0;
	97	 103	 0.048	 0.122	 0.015	 223	 223	 223	 0.0	 0.0	 1	 -30.0	 30.0;
	98	 100	 0.024	 0.064	 0.007	 429	 429	 429	 0.0	 0.0	 1	 -30.0	 30.0;
	98	 102	 0.034	 0.121	 0.015	 233	 233	 233	 0.0	 0.0	 1	 -30.0	 30.0;
	99	 107	 0.053	 0.135	 0.017	 202	 202	 202	 0.0	 0.0	 1	 -30.0	 30.0;
	99	 108	 0.002	 0.004	 0.002	 6558	 6558	 6558	 0.0	 0.0	 1	 -30.0	 30.0;
	99	 109	 0.045	 0.354	 0.044	 82	 82	 82	 0.0	 0.0	 1	 -30.0	 30.0;
	99	 110	 0.05	 0.174	 0.022	 162	 162	 162	 0.0	 0.0	 1	 -30.0	 30.0;
	100	 102	 0.016	 0.038	 0.004	 711	 711	 711	 0.0	 0.0	 1	 -30.0	 30.0;
	102	 104	 0.043	 0.064	 0.027	 380	 380	 380	 0.0	 0.0	 1	 -30.0	 30.0;
	103	 105	 0.019	 0.062	 0.008	 452	 452	 452	 0.0	 0.0	 1	 -30.0	 30.0;
	104	 108	 0.076	 0.13	 0.044	 194	 194	 194	 0.0	 0.0	 1	 -30.0	 30.0;
	104	 322	 0.044	 0.124	 0.015	 222	 222	 222	 0.0	 0.0	 1	 -30.0	 30.0;
	105	 107	 0.012	 0.088	 0.011	 330	 330	 330	 0.0	 0.0	 1	 -30.0	 30.0;
	105	 110	 0.157	 0.4	 0.047	 68	 68	 68	 0.0	 0.0	 1	 -30.0	 30.0;
	108	 324	 0.074	 0.208	 0.026	 132	 132	 132	 0.0	 0.0	 1	 -30.0	 30.0;
	109	 110	 0.07	 0.184	 0.021	 148	 148	 148	 0.0	 0.0	 1	 -30.0	 30.0;
	109	 113	 0.1	 0.274	 0.031	 100	 100	 100	 0.0	 0.0	 1	 -30.0	 30.0;
	109	 114	 0.109	 0.393	 0.036	 71	 71	 71	 0.0	 0.0	 1	 -30.0	 30.0;
	110	 112	 0.142	 0.404	 0.05	 68	 68	 68	 0.0	 0.0	 1	 -30.0	 30.0;
	112	 114	 0.017	 0.042	 0.006	 647	 647	 647	 0.0	 0.0	 1	 -30.0	 30.0;
	115	 122	 0.0036	 0.0199	 0.004	 1450	 1450	 1450	 0.0	 0.0	 1	 -30.0	 30.0;
	116	 120	 0.002	 0.1049	 0.001	 279	 279	 279	 0.0	 0.0	 1	 -30.0	 30.0;
	117	 118	 0.0001	 0.0018	 0.017	 9900.0	 16270	 16270	 0.0	 0.0	 1	 -30.0	 30.0;
	118	 119	 0.0	 0.0271	 0.0	 1082	 1082	 1082	 0.0	 0.0	 1	 -30.0	 30.0;
	118	 1201	 0.0	 0.6163	 0.0	 47	 47	 47	 0.0	 0.0	 1	 -30.0	 30.0;
	1201	 120	 0.0	 -0.3697	 0.0	 79	 79	 79	 0.0	 0.0	 1	 -30.0	 30.0;
	118	 121	 0.0022	 0.2915	 0.0	 100	 100	 100	 0.0	 0.0	 1	 -30.0	 30.0;
	119	 120	 0.0	 0.0339	 0.0	 865	 865	 865	 0.0	 0.0	 1	 -30.0	 30.0;
	119	 121	 0.0	 0.0582	 0.0	 503	 503	 503	 0.0	 0.0	 1	 -30.0	 30.0;
	122	 123	 0.0808	 0.2344	 0.029	 118	 118	 118	 0.0	 0.0	 1	 -30.0	 30.0;
	122	 125	 0.0965	 0.3669	 0.054	 77	 77	 77	 0.0	 0.0	 1	 -30.0	 30.0;
	123	 124	 0.036	 0.1076	 0.117	 258	 258	 258	 0.0	 0.0	 1	 -30.0	 30.0;
	123	 125	 0.0476	 0.1414	 0.149	 196	 196	 196	 0.0	 0.0	 1	 -30.0	 30.0;
	125	 126	 0.0006	 0.0197	 0.0	 1488	 1488	 1488	 0.0	 0.0	 1	 -30.0	 30.0;
	126	 127	 0.0059	 0.0405	 0.25	 716	 716	 716	 0.0	 0.0	 1	 -30.0	 30.0;
	126	 129	 0.0115	 0.1106	 0.185	 263	 263	 263	 0.0	 0.0	 1	 -30.0	 30.0;
	126	 132	 0.0198	 0.1688	 0.321	 172	 172	 172	 0.0	 0.0	 1	 -30.0	 30.0;
	126	 157	 0.005	 0.05	 0.33	 583	 583	 583	 0.0	 0.0	 1	 -30.0	 30.0;
	126	 158	 0.0077	 0.0538	 0.335	 539	 539	 539	 0.0	 0.0	 1	 -30.0	 30.0;
	126	 169	 0.0165	 0.1157	 0.171	 250	 250	 250	 0.0	 0.0	 1	 -30.0	 30.0;
	127	 128	 0.0059	 0.0577	 0.095	 505	 505	 505	 0.0	 0.0	 1	 -30.0	 30.0;
	127	 134	 0.0049	 0.0336	 0.208	 863	 863	 863	 0.0	 0.0	 1	 -30.0	 30.0;
	127	 168	 0.0059	 0.0577	 0.095	 505	 505	 505	 0.0	 0.0	 1	 -30.0	 30.0;
	128	 130	 0.0078	 0.0773	 0.126	 377	 377	 377	 0.0	 0.0	 1	 -30.0	 30.0;
	128	 133	 0.0026	 0.0193	 0.03	 1506	 1506	 1506	 0.0	 0.0	 1	 -30.0	 30.0;
	129	 130	 0.0076	 0.0752	 0.122	 388	 388	 388	 0.0	 0.0	 1	 -30.0	 30.0;
	129	 133	 0.0021	 0.0186	 0.03	 1567	 1567	 1567	 0.0	 0.0	 1	 -30.0	 30.0;
...
];

% INFO    : === Translation Options ===
% INFO    : Phase Angle Bound:           30.0 (deg.)
% INFO    : Line Capacity Model:         ub
% INFO    : Gen Active Capacity Model:   stat
% INFO    : Gen Reactive Capacity Model: am50ag
% INFO    : Gen Active Cost Model:       stat
% WARNING : No active generation at the slack bus, assigning type - NUC
% INFO    : 
% INFO    : === Generator Classification Notes ===
% INFO    : PEL    2   -     2.21
% INFO    : NUC    3   -    13.91
% INFO    : SYNC   12  -     0.00
% INFO    : COW    20  -    52.09
% INFO    : NG     32  -    31.79
% INFO    : 
% INFO    : === Generator Active Capacity Stat Model Notes ===
% INFO    : Gen at bus 8 - SYNC	: Pg=0.0, Pmax=100.0 -> Pmax=0   samples: 0
% INFO    : Gen at bus 10 - SYNC	: Pg=0.0, Pmax=100.0 -> Pmax=0   samples: 0
% INFO    : Gen at bus 20 - SYNC	: Pg=0.0, Pmax=100.0 -> Pmax=0   samples: 0
% INFO    : Gen at bus 63 - SYNC	: Pg=0.0, Pmax=100.0 -> Pmax=0   samples: 0
% INFO    : Gen at bus 76 - SYNC	: Pg=0.0, Pmax=100.0 -> Pmax=0   samples: 0
% WARNING : Failed to find a generator capacity within (375.0-1875.0) after 100 samples, using percent increase model
% INFO    : Gen at bus 84 - NG	: Pg=375.0, Pmax=475.0 -> Pmax=423   samples: 100
% INFO    : Gen at bus 91 - NG	: Pg=155.0, Pmax=255.0 -> Pmax=182   samples: 3
% INFO    : Gen at bus 92 - NG	: Pg=290.0, Pmax=390.0 -> Pmax=313   samples: 20
% INFO    : Gen at bus 98 - COW	: Pg=68.0, Pmax=168.0 -> Pmax=315   samples: 1
% INFO    : Gen at bus 108 - COW	: Pg=117.0, Pmax=217.0 -> Pmax=327   samples: 2
% INFO    : Gen at bus 119 - COW	: Pg=1930.0, Pmax=2030.0 -> Pmax=1969   samples: 64
% INFO    : Gen at bus 124 - NG	: Pg=240.0, Pmax=340.0 -> Pmax=364   samples: 5
% INFO    : Gen at bus 125 - SYNC	: Pg=0.0, Pmax=100.0 -> Pmax=0   samples: 0
% INFO    : Gen at bus 138 - SYNC	: Pg=0.0, Pmax=100.0 -> Pmax=0   samples: 0
% INFO    : Gen at bus 141 - COW	: Pg=281.0, Pmax=381.0 -> Pmax=322   samples: 1
% INFO    : Gen at bus 143 - COW	: Pg=696.0, Pmax=796.0 -> Pmax=1090   samples: 10
% INFO    : Gen at bus 146 - NG	: Pg=84.0, Pmax=184.0 -> Pmax=184   samples: 1
% INFO    : Gen at bus 147 - NG	: Pg=217.0, Pmax=317.0 -> Pmax=237   samples: 3
% INFO    : Gen at bus 149 - NG	: Pg=103.0, Pmax=203.0 -> Pmax=179   samples: 8
% INFO    : Gen at bus 152 - NG	: Pg=372.0, Pmax=472.0 -> Pmax=389   samples: 13
% INFO    : Gen at bus 153 - NG	: Pg=216.0, Pmax=316.0 -> Pmax=330   samples: 1
% INFO    : Gen at bus 156 - SYNC	: Pg=0.0, Pmax=100.0 -> Pmax=0   samples: 0
% INFO    : Gen at bus 170 - NG	: Pg=205.0, Pmax=305.0 -> Pmax=542   samples: 11
% INFO    : Gen at bus 171 - SYNC	: Pg=0.0, Pmax=100.0 -> Pmax=0   samples: 0
% INFO    : Gen at bus 176 - NG	: Pg=228.0, Pmax=328.0 -> Pmax=400   samples: 11
% INFO    : Gen at bus 177 - NG	: Pg=84.0, Pmax=184.0 -> Pmax=270   samples: 1
% INFO    : Gen at bus 185 - NG	: Pg=200.0, Pmax=300.0 -> Pmax=432   samples: 15
% WARNING : Failed to find a generator capacity within (1200.0-6000.0) after 100 samples, using percent increase model
% INFO    : Gen at bus 186 - COW	: Pg=1200.0, Pmax=1300.0 -> Pmax=1301   samples: 100
% INFO    : Gen at bus 187 - COW	: Pg=1200.0, Pmax=1300.0 -> Pmax=1424   samples: 40
% WARNING : Failed to find a generator capacity within (475.0-2375.0) after 100 samples, using percent increase model
% INFO    : Gen at bus 190 - PEL	: Pg=475.0, Pmax=575.0 -> Pmax=551   samples: 100
% WARNING : Failed to find a generator capacity within (1973.0-9865.0) after 100 samples, using percent increase model
% INFO    : Gen at bus 191 - NUC	: Pg=1973.0, Pmax=2073.0 -> Pmax=2087   samples: 100
% INFO    : Gen at bus 198 - NG	: Pg=424.0, Pmax=524.0 -> Pmax=457   samples: 5
% INFO    : Gen at bus 213 - COW	: Pg=272.0, Pmax=372.0 -> Pmax=440   samples: 1
% INFO    : Gen at bus 220 - NG	: Pg=100.0, Pmax=200.0 -> Pmax=313   samples: 4
% INFO    : Gen at bus 221 - COW	: Pg=450.0, Pmax=550.0 -> Pmax=566   samples: 2
% INFO    : Gen at bus 222 - NG	: Pg=250.0, Pmax=350.0 -> Pmax=292   samples: 39
% INFO    : Gen at bus 227 - NG	: Pg=303.0, Pmax=403.0 -> Pmax=400   samples: 1
% INFO    : Gen at bus 230 - NG	: Pg=345.0, Pmax=445.0 -> Pmax=457   samples: 14
% INFO    : Gen at bus 233 - COW	: Pg=300.0, Pmax=400.0 -> Pmax=1259   samples: 3
% INFO    : Gen at bus 236 - COW	: Pg=600.0, Pmax=700.0 -> Pmax=603   samples: 20
% INFO    : Gen at bus 238 - NG	: Pg=250.0, Pmax=350.0 -> Pmax=281   samples: 4
% INFO    : Gen at bus 239 - NG	: Pg=550.0, Pmax=650.0 -> Pmax=656   samples: 1
% INFO    : Gen at bus 241 - COW	: Pg=575.43, Pmax=675.43 -> Pmax=594   samples: 7
% INFO    : Gen at bus 242 - NG	: Pg=170.0, Pmax=270.0 -> Pmax=293   samples: 14
% INFO    : Gen at bus 243 - NG	: Pg=84.0, Pmax=184.0 -> Pmax=98   samples: 4
% INFO    : Gen at bus 7001 - COW	: Pg=467.0, Pmax=567.0 -> Pmax=1084   samples: 2
% INFO    : Gen at bus 7002 - COW	: Pg=623.0, Pmax=723.0 -> Pmax=814   samples: 3
% INFO    : Gen at bus 7003 - COW	: Pg=1210.0, Pmax=1310.0 -> Pmax=1798   samples: 8
% INFO    : Gen at bus 7011 - NG	: Pg=234.0, Pmax=334.0 -> Pmax=338   samples: 9
% INFO    : Gen at bus 7012 - COW	: Pg=372.0, Pmax=472.0 -> Pmax=382   samples: 2
% INFO    : Gen at bus 7017 - NG	: Pg=330.0, Pmax=430.0 -> Pmax=461   samples: 8
% INFO    : Gen at bus 7023 - NG	: Pg=185.0, Pmax=285.0 -> Pmax=202   samples: 1
% INFO    : Gen at bus 7024 - NG	: Pg=410.0, Pmax=510.0 -> Pmax=503   samples: 33
% INFO    : Gen at bus 7039 - COW	: Pg=500.0, Pmax=600.0 -> Pmax=534   samples: 4
% INFO    : Gen at bus 7044 - NG	: Pg=37.0, Pmax=137.0 -> Pmax=43   samples: 1
% INFO    : Gen at bus 7049 - NUC	: Pg=0.0, Pmax=2399.01 -> Pmax=1366   samples: 1
% INFO    : Gen at bus 7055 - PEL	: Pg=45.0, Pmax=145.0 -> Pmax=63   samples: 3
% INFO    : Gen at bus 7057 - NG	: Pg=165.0, Pmax=265.0 -> Pmax=167   samples: 1
% WARNING : Failed to find a generator capacity within (400.0-2000.0) after 100 samples, using percent increase model
% INFO    : Gen at bus 7061 - NG	: Pg=400.0, Pmax=500.0 -> Pmax=451   samples: 100
% INFO    : Gen at bus 7062 - NG	: Pg=400.0, Pmax=500.0 -> Pmax=583   samples: 7
% INFO    : Gen at bus 7071 - COW	: Pg=116.0, Pmax=216.0 -> Pmax=308   samples: 1
% INFO    : Gen at bus 7130 - NUC	: Pg=1292.0, Pmax=1392.0 -> Pmax=1354   samples: 3
% INFO    : Gen at bus 7139 - COW	: Pg=700.0, Pmax=800.0 -> Pmax=946   samples: 6
% INFO    : Gen at bus 7166 - COW	: Pg=553.0, Pmax=653.0 -> Pmax=559   samples: 3
% INFO    : Gen at bus 9002 - SYNC	: Pg=0.0, Pmax=100.0 -> Pmax=0   samples: 0
% INFO    : Gen at bus 9051 - SYNC	: Pg=0.0, Pmax=100.0 -> Pmax=0   samples: 0
% INFO    : Gen at bus 9053 - SYNC	: Pg=0.0, Pmax=100.0 -> Pmax=0   samples: 0
% INFO    : Gen at bus 9054 - NG	: Pg=50.0, Pmax=150.0 -> Pmax=174   samples: 1
% INFO    : Gen at bus 9055 - NG	: Pg=8.0, Pmax=108.0 -> Pmax=22   samples: 1
% INFO    : 
% INFO    : === Generator Reactive Capacity Atmost Max 50 Percent Active Model Notes ===
% INFO    : Gen at bus 84 - NG	: Pmax 423.0, Qmin -240.0, Qmax 240.0 -> Qmin -212.0, Qmax 212.0
% INFO    : Gen at bus 91 - NG	: Pmax 182.0, Qmin -11.0, Qmax 96.0 -> Qmin -11.0, Qmax 91.0
% INFO    : Gen at bus 119 - COW	: Pmax 1969.0, Qmin -500.0, Qmax 1500.0 -> Qmin -500.0, Qmax 985.0
% INFO    : Gen at bus 190 - PEL	: Pmax 551.0, Qmin -300.0, Qmax 300.0 -> Qmin -276.0, Qmax 276.0
% INFO    : Gen at bus 198 - NG	: Pmax 457.0, Qmin -260.0, Qmax 260.0 -> Qmin -229.0, Qmax 229.0
% INFO    : Gen at bus 221 - COW	: Pmax 566.0, Qmin -320.0, Qmax 320.0 -> Qmin -283.0, Qmax 283.0
% INFO    : Gen at bus 222 - NG	: Pmax 292.0, Qmin -300.0, Qmax 300.0 -> Qmin -146.0, Qmax 146.0
% INFO    : Gen at bus 227 - NG	: Pmax 400.0, Qmin -300.0, Qmax 300.0 -> Qmin -200.0, Qmax 200.0
% INFO    : Gen at bus 230 - NG	: Pmax 457.0, Qmin -250.0, Qmax 250.0 -> Qmin -229.0, Qmax 229.0
% INFO    : Gen at bus 238 - NG	: Pmax 281.0, Qmin -200.0, Qmax 200.0 -> Qmin -141.0, Qmax 141.0
% INFO    : Gen at bus 239 - NG	: Pmax 656.0, Qmin -400.0, Qmax 400.0 -> Qmin -328.0, Qmax 328.0
% INFO    : Gen at bus 241 - COW	: Pmax 594.0, Qmin -600.0, Qmax 600.0 -> Qmin -297.0, Qmax 297.0
% INFO    : Gen at bus 243 - NG	: Pmax 98.0, Qmin 40.0, Qmax 80.0 -> Qmin 40.0, Qmax 49.0
% INFO    : Gen at bus 7012 - COW	: Pmax 382.0, Qmin -224.0, Qmax 224.0 -> Qmin -191.0, Qmax 191.0
% INFO    : Gen at bus 7017 - NG	: Pmax 461.0, Qmin 0.0, Qmax 350.0 -> Qmin 0.0, Qmax 231.0
% INFO    : Gen at bus 7023 - NG	: Pmax 202.0, Qmin 0.0, Qmax 120.0 -> Qmin 0.0, Qmax 101.0
% INFO    : Gen at bus 7044 - NG	: Pmax 43.0, Qmin 0.0, Qmax 42.0 -> Qmin 0.0, Qmax 22.0
% INFO    : Gen at bus 7057 - NG	: Pmax 167.0, Qmin -90.0, Qmax 90.0 -> Qmin -84.0, Qmax 84.0
% INFO    : Gen at bus 7166 - COW	: Pmax 559.0, Qmin -200.0, Qmax 300.0 -> Qmin -200.0, Qmax 280.0
% INFO    : 
% INFO    : === Generator Active Cost Stat Model Notes ===
% INFO    : Updated Generator Cost: SYNC - 0.0 40.0 0.01 -> 0 0.0 0
% INFO    : Updated Generator Cost: SYNC - 0.0 40.0 0.01 -> 0 0.0 0
% INFO    : Updated Generator Cost: SYNC - 0.0 40.0 0.01 -> 0 0.0 0
% INFO    : Updated Generator Cost: SYNC - 0.0 40.0 0.01 -> 0 0.0 0
% INFO    : Updated Generator Cost: SYNC - 0.0 40.0 0.01 -> 0 0.0 0
% INFO    : Updated Generator Cost: NG - 0.0 20.0 0.0266667 -> 0 0.862936937831 0
% INFO    : Updated Generator Cost: NG - 0.0 20.0 0.0645161 -> 0 1.14521924862 0
% INFO    : Updated Generator Cost: NG - 0.0 20.0 0.0344828 -> 0 0.855144443151 0
% INFO    : Updated Generator Cost: COW - 0.0 20.0 0.147059 -> 0 0.623183913408 0
% INFO    : Updated Generator Cost: COW - 0.0 20.0 0.0854701 -> 0 0.436941632564 0
% INFO    : Updated Generator Cost: COW - 0.0 20.0 0.00518135 -> 0 0.860738649274 0
% INFO    : Updated Generator Cost: NG - 0.0 20.0 0.0416667 -> 0 1.16527717422 0
% INFO    : Updated Generator Cost: SYNC - 0.0 40.0 0.01 -> 0 0.0 0
% INFO    : Updated Generator Cost: SYNC - 0.0 40.0 0.01 -> 0 0.0 0
% INFO    : Updated Generator Cost: COW - 0.0 20.0 0.0355872 -> 0 0.736240387003 0
% INFO    : Updated Generator Cost: COW - 0.0 20.0 0.0143678 -> 0 0.518890126965 0
% INFO    : Updated Generator Cost: NG - 0.0 20.0 0.119048 -> 0 0.950469969656 0
% INFO    : Updated Generator Cost: NG - 0.0 20.0 0.0460829 -> 0 1.03544299015 0
% INFO    : Updated Generator Cost: NG - 0.0 20.0 0.0970874 -> 0 1.00086508104 0
% INFO    : Updated Generator Cost: NG - 0.0 20.0 0.0268817 -> 0 1.2050685846 0
% INFO    : Updated Generator Cost: NG - 0.0 20.0 0.0462963 -> 0 1.00600279344 0
% INFO    : Updated Generator Cost: SYNC - 0.0 40.0 0.01 -> 0 0.0 0
% INFO    : Updated Generator Cost: NG - 0.0 20.0 0.0487805 -> 0 1.29683021865 0
% INFO    : Updated Generator Cost: SYNC - 0.0 40.0 0.01 -> 0 0.0 0
% INFO    : Updated Generator Cost: NG - 0.0 20.0 0.0438596 -> 0 0.881520953623 0
% INFO    : Updated Generator Cost: NG - 0.0 20.0 0.119048 -> 0 1.07725849929 0
% INFO    : Updated Generator Cost: NG - 0.0 20.0 0.05 -> 0 0.881765830173 0
% INFO    : Updated Generator Cost: COW - 0.0 20.0 0.00833333 -> 0 0.680560589417 0
% INFO    : Updated Generator Cost: COW - 0.0 20.0 0.00833333 -> 0 0.525814724801 0
% INFO    : Updated Generator Cost: PEL - 0.0 20.0 0.0210526 -> 0 6.58982043715 0
% INFO    : Updated Generator Cost: NUC - 0.0 20.0 0.00506842 -> 0 0.238746447162 0
% INFO    : Updated Generator Cost: NG - 0.0 20.0 0.0235849 -> 0 1.29657737617 0
% INFO    : Updated Generator Cost: COW - 0.0 20.0 0.0367647 -> 0 0.766488184317 0
% INFO    : Updated Generator Cost: NG - 0.0 20.0 0.1 -> 0 1.18987238632 0
% INFO    : Updated Generator Cost: COW - 0.0 20.0 0.0222222 -> 0 0.793755135644 0
% INFO    : Updated Generator Cost: NG - 0.0 20.0 0.04 -> 0 1.15196791267 0
% INFO    : Updated Generator Cost: NG - 0.0 20.0 0.0330033 -> 0 0.967288818418 0
% INFO    : Updated Generator Cost: NG - 0.0 20.0 0.0289855 -> 0 1.35167825453 0
% INFO    : Updated Generator Cost: COW - 0.0 20.0 0.0333333 -> 0 1.09279598028 0
% INFO    : Updated Generator Cost: COW - 0.0 20.0 0.0166667 -> 0 0.717838234806 0
% INFO    : Updated Generator Cost: NG - 0.0 20.0 0.04 -> 0 0.81619553221 0
% INFO    : Updated Generator Cost: NG - 0.0 20.0 0.0181818 -> 0 0.829873100224 0
% INFO    : Updated Generator Cost: COW - 0.0 20.0 0.0173783 -> 0 0.965276508568 0
% INFO    : Updated Generator Cost: NG - 0.0 20.0 0.0588235 -> 0 1.026425974 0
% INFO    : Updated Generator Cost: NG - 0.0 20.0 0.119048 -> 0 1.16252241628 0
% INFO    : Updated Generator Cost: COW - 0.0 20.0 0.0214133 -> 0 0.464374642599 0
% INFO    : Updated Generator Cost: COW - 0.0 20.0 0.0160514 -> 0 0.643628895706 0
% INFO    : Updated Generator Cost: COW - 0.0 20.0 0.00826446 -> 0 0.979372985559 0
% INFO    : Updated Generator Cost: NG - 0.0 20.0 0.042735 -> 0 1.1017649785 0
% INFO    : Updated Generator Cost: COW - 0.0 20.0 0.0268817 -> 0 0.668354848387 0
% INFO    : Updated Generator Cost: NG - 0.0 20.0 0.030303 -> 0 0.96329783261 0
% INFO    : Updated Generator Cost: NG - 0.0 20.0 0.0540541 -> 0 0.910148392673 0
% INFO    : Updated Generator Cost: NG - 0.0 20.0 0.0243902 -> 0 1.07099133939 0
% INFO    : Updated Generator Cost: COW - 0.0 20.0 0.02 -> 0 0.440400756222 0
% INFO    : Updated Generator Cost: NG - 0.0 20.0 0.27027 -> 0 0.698679131186 0
% INFO    : Updated Generator Cost: NUC - 0.0 40.0 0.01 -> 0 0.220280062578 0
% INFO    : Updated Generator Cost: PEL - 0.0 20.0 0.222222 -> 0 6.63818098906 0
% INFO    : Updated Generator Cost: NG - 0.0 20.0 0.0606061 -> 0 1.15117617714 0
% INFO    : Updated Generator Cost: NG - 0.0 20.0 0.025 -> 0 0.798995700977 0
% INFO    : Updated Generator Cost: NG - 0.0 20.0 0.025 -> 0 0.94014954122 0
% INFO    : Updated Generator Cost: COW - 0.0 20.0 0.0862069 -> 0 1.02188641245 0
...